
     RDKit          3D

 27 26  0  0  0  0  0  0  0  0999 V2000
    0.1763   -1.9074   -0.9774 C   0  0  0  0  0  0  0  0  0  0  0  0
    0.0821   -0.7358   -0.0021 C   0  0  1  0  0  0  0  0  0  0  0  0
    1.0725    0.2159   -0.3919 O   0  0  0  0  0  0  0  0  0  0  0  0
    2.4224    0.2990    0.4947 P   0  0  2  0  0  5  0  0  0  0  0  0
    3.3902    1.5251   -0.3535 C   0  0  0  0  0  0  0  0  0  0  0  0
    3.1044   -1.0273    0.6573 O   0  0  0  0  0  0  0  0  0  0  0  0
    1.8852    0.8069    1.8807 F   0  0  0  0  0  0  0  0  0  0  0  0
   -1.3099   -0.0354    0.0526 C   0  0  0  0  0  0  0  0  0  0  0  0
   -1.2554    1.1156    1.0805 C   0  0  0  0  0  0  0  0  0  0  0  0
   -2.4018   -1.0249    0.4985 C   0  0  0  0  0  0  0  0  0  0  0  0
   -1.7064    0.5646   -1.3097 C   0  0  0  0  0  0  0  0  0  0  0  0
    1.1835   -2.3382   -0.9526 H   0  0  0  0  0  0  0  0  0  0  0  0
    0.0126   -1.5859   -2.0107 H   0  0  0  0  0  0  0  0  0  0  0  0
   -0.5319   -2.7034   -0.7344 H   0  0  0  0  0  0  0  0  0  0  0  0
    0.3192   -1.1121    1.0018 H   0  0  0  0  0  0  0  0  0  0  0  0
    2.8343    2.4630   -0.4365 H   0  0  0  0  0  0  0  0  0  0  0  0
    4.3166    1.7236    0.1921 H   0  0  0  0  0  0  0  0  0  0  0  0
    3.6478    1.1862   -1.3606 H   0  0  0  0  0  0  0  0  0  0  0  0
   -2.2316    1.6039    1.1812 H   0  0  0  0  0  0  0  0  0  0  0  0
   -0.9670    0.7453    2.0707 H   0  0  0  0  0  0  0  0  0  0  0  0
   -0.5340    1.8860    0.7869 H   0  0  0  0  0  0  0  0  0  0  0  0
   -2.1355   -1.5056    1.4464 H   0  0  0  0  0  0  0  0  0  0  0  0
   -2.5664   -1.8111   -0.2453 H   0  0  0  0  0  0  0  0  0  0  0  0
   -3.3611   -0.5147    0.6438 H   0  0  0  0  0  0  0  0  0  0  0  0
   -1.8335   -0.2113   -2.0715 H   0  0  0  0  0  0  0  0  0  0  0  0
   -0.9544    1.2737   -1.6722 H   0  0  0  0  0  0  0  0  0  0  0  0
   -2.6581    1.1043   -1.2381 H   0  0  0  0  0  0  0  0  0  0  0  0
  1  2  1  0
  2  3  1  0
  3  4  1  0
  4  5  1  0
  4  6  2  0
  4  7  1  1
  2  8  1  0
  8  9  1  0
  8 10  1  0
  8 11  1  0
  1 12  1  0
  1 13  1  0
  1 14  1  0
  2 15  1  1
  5 16  1  0
  5 17  1  0
  5 18  1  0
  9 19  1  0
  9 20  1  0
  9 21  1  0
 10 22  1  0
 10 23  1  0
 10 24  1  0
 11 25  1  0
 11 26  1  0
 11 27  1  0
M  END
$$$$
