
     RDKit          3D

 27 26  0  0  0  0  0  0  0  0999 V2000
    0.6755   -1.2178    1.2261 C   0  0  0  0  0  0  0  0  0  0  0  0
    0.1968   -0.3725    0.0463 C   0  0  2  0  0  0  0  0  0  0  0  0
    0.9531    0.8375    0.0708 O   0  0  0  0  0  0  0  0  0  0  0  0
    1.9789    1.1493   -1.1397 P   0  0  1  0  0  5  0  0  0  0  0  0
    3.4041    0.1459   -0.7796 C   0  0  0  0  0  0  0  0  0  0  0  0
    1.3921    0.9071   -2.4994 O   0  0  0  0  0  0  0  0  0  0  0  0
    2.2712    2.6797   -0.9401 F   0  0  0  0  0  0  0  0  0  0  0  0
   -1.3272   -0.0364    0.0636 C   0  0  0  0  0  0  0  0  0  0  0  0
   -1.7224    0.7762    1.3118 C   0  0  0  0  0  0  0  0  0  0  0  0
   -2.1705   -1.3241    0.0201 C   0  0  0  0  0  0  0  0  0  0  0  0
   -1.6799    0.8076   -1.1797 C   0  0  0  0  0  0  0  0  0  0  0  0
    0.5376   -0.6964    2.1785 H   0  0  0  0  0  0  0  0  0  0  0  0
    1.7508   -1.4091    1.1425 H   0  0  0  0  0  0  0  0  0  0  0  0
    0.1696   -2.1854    1.2719 H   0  0  0  0  0  0  0  0  0  0  0  0
    0.4248   -0.9271   -0.8728 H   0  0  0  0  0  0  0  0  0  0  0  0
    4.2109    0.3714   -1.4824 H   0  0  0  0  0  0  0  0  0  0  0  0
    3.7674    0.3435    0.2325 H   0  0  0  0  0  0  0  0  0  0  0  0
    3.1662   -0.9177   -0.8628 H   0  0  0  0  0  0  0  0  0  0  0  0
   -2.7822    1.0553    1.2784 H   0  0  0  0  0  0  0  0  0  0  0  0
   -1.5706    0.2035    2.2323 H   0  0  0  0  0  0  0  0  0  0  0  0
   -1.1423    1.7019    1.3902 H   0  0  0  0  0  0  0  0  0  0  0  0
   -2.0549   -1.9175    0.9328 H   0  0  0  0  0  0  0  0  0  0  0  0
   -1.8869   -1.9527   -0.8313 H   0  0  0  0  0  0  0  0  0  0  0  0
   -3.2377   -1.0939   -0.0789 H   0  0  0  0  0  0  0  0  0  0  0  0
   -1.4178    0.2778   -2.1022 H   0  0  0  0  0  0  0  0  0  0  0  0
   -1.1532    1.7680   -1.1793 H   0  0  0  0  0  0  0  0  0  0  0  0
   -2.7534    1.0258   -1.2191 H   0  0  0  0  0  0  0  0  0  0  0  0
  1  2  1  0
  2  3  1  0
  3  4  1  0
  4  5  1  0
  4  6  2  0
  4  7  1  6
  2  8  1  0
  8  9  1  0
  8 10  1  0
  8 11  1  0
  1 12  1  0
  1 13  1  0
  1 14  1  0
  2 15  1  6
  5 16  1  0
  5 17  1  0
  5 18  1  0
  9 19  1  0
  9 20  1  0
  9 21  1  0
 10 22  1  0
 10 23  1  0
 10 24  1  0
 11 25  1  0
 11 26  1  0
 11 27  1  0
M  END
$$$$
