A230_02_P8R_C5N7Z
     RDKit          3D

 28 27  0  0  0  0  0  0  0  0999 V2000
   -0.9861    2.5478   -0.2475 C   0  0  0  0  0  0  0  0  0  0  0  0
   -1.7146    1.2141   -0.3139 C   0  0  0  0  0  0  0  0  0  0  0  0
   -0.7843    0.1026   -0.0911 N   0  0  0  0  0  0  0  0  0  0  0  0
   -0.7025   -0.4105    1.2753 C   0  0  0  0  0  0  0  0  0  0  0  0
   -1.8452   -1.3813    1.5408 C   0  0  0  0  0  0  0  0  0  0  0  0
    0.1093   -0.2660   -1.0773 C   0  0  0  0  0  0  0  0  0  0  0  0
   -0.4945   -0.6559   -2.4170 C   0  0  0  0  0  0  0  0  0  0  0  0
    1.3946   -0.2954   -1.0389 N   0  0  0  0  0  0  0  0  0  0  0  0
    2.4097    0.1611    0.1026 P   0  0  2  0  0  5  0  0  0  0  0  0
    3.1661   -1.3446    0.7145 C   0  0  0  0  0  0  0  0  0  0  0  0
    1.9174    1.0263    1.2302 O   0  0  0  0  0  0  0  0  0  0  0  0
    3.4939    0.9859   -0.6919 F   0  0  0  0  0  0  0  0  0  0  0  0
   -0.2049    2.6129   -1.0119 H   0  0  0  0  0  0  0  0  0  0  0  0
   -0.5129    2.6905    0.7293 H   0  0  0  0  0  0  0  0  0  0  0  0
   -1.6883    3.3715   -0.4090 H   0  0  0  0  0  0  0  0  0  0  0  0
   -2.2067    1.1118   -1.2874 H   0  0  0  0  0  0  0  0  0  0  0  0
   -2.5149    1.2064    0.4349 H   0  0  0  0  0  0  0  0  0  0  0  0
    0.2319   -0.9544    1.4373 H   0  0  0  0  0  0  0  0  0  0  0  0
   -0.7322    0.4113    1.9996 H   0  0  0  0  0  0  0  0  0  0  0  0
   -2.8198   -0.8917    1.4507 H   0  0  0  0  0  0  0  0  0  0  0  0
   -1.7656   -1.7921    2.5521 H   0  0  0  0  0  0  0  0  0  0  0  0
   -1.8229   -2.2145    0.8303 H   0  0  0  0  0  0  0  0  0  0  0  0
   -0.5881    0.2372   -3.0415 H   0  0  0  0  0  0  0  0  0  0  0  0
   -1.4816   -1.1048   -2.2748 H   0  0  0  0  0  0  0  0  0  0  0  0
    0.1493   -1.3789   -2.9269 H   0  0  0  0  0  0  0  0  0  0  0  0
    3.6060   -1.9107   -0.1111 H   0  0  0  0  0  0  0  0  0  0  0  0
    3.9591   -1.1027    1.4272 H   0  0  0  0  0  0  0  0  0  0  0  0
    2.4278   -1.9759    1.2153 H   0  0  0  0  0  0  0  0  0  0  0  0
  1  2  1  0
  2  3  1  0
  3  4  1  0
  4  5  1  0
  3  6  1  0
  6  7  1  0
  6  8  2  0
  8  9  1  0
  9 10  1  0
  9 11  2  0
  9 12  1  6
  1 13  1  0
  1 14  1  0
  1 15  1  0
  2 16  1  0
  2 17  1  0
  4 18  1  0
  4 19  1  0
  5 20  1  0
  5 21  1  0
  5 22  1  0
  7 23  1  0
  7 24  1  0
  7 25  1  0
 10 26  1  0
 10 27  1  0
 10 28  1  0
M  END
$$$$
