A230_00_P8R_C5N7E
     RDKit          3D

 28 27  0  0  0  0  0  0  0  0999 V2000
   -2.3865   -1.4306    1.3677 C   0  0  0  0  0  0  0  0  0  0  0  0
   -2.0934   -0.9044   -0.0289 C   0  0  0  0  0  0  0  0  0  0  0  0
   -0.9994    0.0671    0.0084 N   0  0  0  0  0  0  0  0  0  0  0  0
   -1.4097    1.4709    0.1660 C   0  0  0  0  0  0  0  0  0  0  0  0
   -1.6265    2.1296   -1.1881 C   0  0  0  0  0  0  0  0  0  0  0  0
    0.3364   -0.2495   -0.2301 C   0  0  0  0  0  0  0  0  0  0  0  0
    0.7384   -1.7020   -0.4185 C   0  0  0  0  0  0  0  0  0  0  0  0
    1.2174    0.6982   -0.3168 N   0  0  0  0  0  0  0  0  0  0  0  0
    2.7822    0.6103   -0.6323 P   0  0  2  0  0  5  0  0  0  0  0  0
    3.5937    0.2281    0.9180 C   0  0  0  0  0  0  0  0  0  0  0  0
    3.3930    1.8307   -1.2648 O   0  0  0  0  0  0  0  0  0  0  0  0
    2.9383   -0.5829   -1.6477 F   0  0  0  0  0  0  0  0  0  0  0  0
   -3.1968   -2.1655    1.3333 H   0  0  0  0  0  0  0  0  0  0  0  0
   -2.6919   -0.6203    2.0379 H   0  0  0  0  0  0  0  0  0  0  0  0
   -1.5082   -1.9112    1.8093 H   0  0  0  0  0  0  0  0  0  0  0  0
   -3.0015   -0.4389   -0.4315 H   0  0  0  0  0  0  0  0  0  0  0  0
   -1.8662   -1.7326   -0.7085 H   0  0  0  0  0  0  0  0  0  0  0  0
   -2.3378    1.5296    0.7474 H   0  0  0  0  0  0  0  0  0  0  0  0
   -0.6632    2.0300    0.7423 H   0  0  0  0  0  0  0  0  0  0  0  0
   -1.9451    3.1683   -1.0564 H   0  0  0  0  0  0  0  0  0  0  0  0
   -0.7095    2.1296   -1.7858 H   0  0  0  0  0  0  0  0  0  0  0  0
   -2.3983    1.6075   -1.7629 H   0  0  0  0  0  0  0  0  0  0  0  0
    0.6489   -1.9590   -1.4776 H   0  0  0  0  0  0  0  0  0  0  0  0
    0.1078   -2.3727    0.1674 H   0  0  0  0  0  0  0  0  0  0  0  0
    1.7650   -1.8766   -0.0928 H   0  0  0  0  0  0  0  0  0  0  0  0
    4.6644    0.0799    0.7530 H   0  0  0  0  0  0  0  0  0  0  0  0
    3.4620    1.0491    1.6282 H   0  0  0  0  0  0  0  0  0  0  0  0
    3.1866   -0.6827    1.3638 H   0  0  0  0  0  0  0  0  0  0  0  0
  1  2  1  0
  2  3  1  0
  3  4  1  0
  4  5  1  0
  3  6  1  0
  6  7  1  0
  6  8  2  0
  8  9  1  0
  9 10  1  0
  9 11  2  0
  9 12  1  6
  1 13  1  0
  1 14  1  0
  1 15  1  0
  2 16  1  0
  2 17  1  0
  4 18  1  0
  4 19  1  0
  5 20  1  0
  5 21  1  0
  5 22  1  0
  7 23  1  0
  7 24  1  0
  7 25  1  0
 10 26  1  0
 10 27  1  0
 10 28  1  0
M  END
$$$$
