A232_03_P8S_C5N7Z
     RDKit          3D

 29 28  0  0  0  0  0  0  0  0999 V2000
    0.0654    0.8040    2.3787 C   0  0  0  0  0  0  0  0  0  0  0  0
   -1.0728    0.2661    1.5247 C   0  0  0  0  0  0  0  0  0  0  0  0
   -0.5997   -0.0182    0.1600 N   0  0  0  0  0  0  0  0  0  0  0  0
   -1.4780    0.4953   -0.9034 C   0  0  0  0  0  0  0  0  0  0  0  0
   -2.6885   -0.4055   -1.1001 C   0  0  0  0  0  0  0  0  0  0  0  0
    0.2275   -1.1040   -0.1019 C   0  0  0  0  0  0  0  0  0  0  0  0
    0.0383   -2.3625    0.7342 C   0  0  0  0  0  0  0  0  0  0  0  0
    1.1761   -1.1853   -0.9663 N   0  0  0  0  0  0  0  0  0  0  0  0
    1.7645   -0.1084   -1.9751 P   0  0  1  0  0  5  0  0  0  0  0  0
    3.1370   -0.3637   -2.5301 O   0  0  0  0  0  0  0  0  0  0  0  0
    0.7431   -0.0637   -3.1716 F   0  0  0  0  0  0  0  0  0  0  0  0
    1.6325    1.3822   -1.3633 O   0  0  0  0  0  0  0  0  0  0  0  0
    2.5980    1.7385   -0.3972 C   0  0  0  0  0  0  0  0  0  0  0  0
   -0.2920    1.0277    3.3887 H   0  0  0  0  0  0  0  0  0  0  0  0
    0.8858    0.0847    2.4610 H   0  0  0  0  0  0  0  0  0  0  0  0
    0.4709    1.7261    1.9495 H   0  0  0  0  0  0  0  0  0  0  0  0
   -1.5110   -0.6255    1.9850 H   0  0  0  0  0  0  0  0  0  0  0  0
   -1.8664    1.0231    1.5105 H   0  0  0  0  0  0  0  0  0  0  0  0
   -0.9415    0.5795   -1.8488 H   0  0  0  0  0  0  0  0  0  0  0  0
   -1.8080    1.5119   -0.6581 H   0  0  0  0  0  0  0  0  0  0  0  0
   -3.3349   -0.0037   -1.8866 H   0  0  0  0  0  0  0  0  0  0  0  0
   -2.3857   -1.4160   -1.3932 H   0  0  0  0  0  0  0  0  0  0  0  0
   -3.2799   -0.4853   -0.1824 H   0  0  0  0  0  0  0  0  0  0  0  0
   -1.0261   -2.5972    0.8219 H   0  0  0  0  0  0  0  0  0  0  0  0
    0.4643   -2.2121    1.7294 H   0  0  0  0  0  0  0  0  0  0  0  0
    0.5408   -3.2142    0.2654 H   0  0  0  0  0  0  0  0  0  0  0  0
    2.3059    2.6885    0.0572 H   0  0  0  0  0  0  0  0  0  0  0  0
    3.5745    1.8604   -0.8733 H   0  0  0  0  0  0  0  0  0  0  0  0
    2.6599    0.9774    0.3854 H   0  0  0  0  0  0  0  0  0  0  0  0
  1  2  1  0
  2  3  1  0
  3  4  1  0
  4  5  1  0
  3  6  1  0
  6  7  1  0
  6  8  2  0
  8  9  1  0
  9 10  2  0
  9 11  1  6
  9 12  1  0
 12 13  1  0
  1 14  1  0
  1 15  1  0
  1 16  1  0
  2 17  1  0
  2 18  1  0
  4 19  1  0
  4 20  1  0
  5 21  1  0
  5 22  1  0
  5 23  1  0
  7 24  1  0
  7 25  1  0
  7 26  1  0
 13 27  1  0
 13 28  1  0
 13 29  1  0
M  END
$$$$
