A232_02_P8R_C5N7Z
     RDKit          3D

 29 28  0  0  0  0  0  0  0  0999 V2000
   -0.4673   -0.3081    2.9784 C   0  0  0  0  0  0  0  0  0  0  0  0
   -1.3984   -0.2722    1.7756 C   0  0  0  0  0  0  0  0  0  0  0  0
   -0.6249   -0.1324    0.5337 N   0  0  0  0  0  0  0  0  0  0  0  0
   -1.1738    0.8280   -0.4344 C   0  0  0  0  0  0  0  0  0  0  0  0
   -2.3841    0.2568   -1.1579 C   0  0  0  0  0  0  0  0  0  0  0  0
    0.1838   -1.1619    0.0773 C   0  0  0  0  0  0  0  0  0  0  0  0
   -0.3356   -2.5853    0.2006 C   0  0  0  0  0  0  0  0  0  0  0  0
    1.3622   -1.0572   -0.4276 N   0  0  0  0  0  0  0  0  0  0  0  0
    2.2671    0.2366   -0.6102 P   0  0  2  0  0  5  0  0  0  0  0  0
    3.7459    0.0914   -0.3886 O   0  0  0  0  0  0  0  0  0  0  0  0
    1.7233    1.3428    0.3674 F   0  0  0  0  0  0  0  0  0  0  0  0
    1.9334    0.8868   -2.0552 O   0  0  0  0  0  0  0  0  0  0  0  0
    2.6826    2.0307   -2.4074 C   0  0  0  0  0  0  0  0  0  0  0  0
   -1.0470   -0.3681    3.9047 H   0  0  0  0  0  0  0  0  0  0  0  0
    0.2042   -1.1716    2.9436 H   0  0  0  0  0  0  0  0  0  0  0  0
    0.1515    0.5947    3.0195 H   0  0  0  0  0  0  0  0  0  0  0  0
   -2.0253   -1.1699    1.7486 H   0  0  0  0  0  0  0  0  0  0  0  0
   -2.0787    0.5785    1.9027 H   0  0  0  0  0  0  0  0  0  0  0  0
   -0.4184    1.1042   -1.1738 H   0  0  0  0  0  0  0  0  0  0  0  0
   -1.4504    1.7568    0.0782 H   0  0  0  0  0  0  0  0  0  0  0  0
   -2.7804    0.9897   -1.8676 H   0  0  0  0  0  0  0  0  0  0  0  0
   -2.1205   -0.6472   -1.7164 H   0  0  0  0  0  0  0  0  0  0  0  0
   -3.1836   -0.0027   -0.4566 H   0  0  0  0  0  0  0  0  0  0  0  0
   -1.4011   -2.6219   -0.0419 H   0  0  0  0  0  0  0  0  0  0  0  0
   -0.1821   -2.9425    1.2223 H   0  0  0  0  0  0  0  0  0  0  0  0
    0.1994   -3.2476   -0.4867 H   0  0  0  0  0  0  0  0  0  0  0  0
    2.2694    2.4509   -3.3278 H   0  0  0  0  0  0  0  0  0  0  0  0
    3.7262    1.7563   -2.5828 H   0  0  0  0  0  0  0  0  0  0  0  0
    2.6224    2.7846   -1.6176 H   0  0  0  0  0  0  0  0  0  0  0  0
  1  2  1  0
  2  3  1  0
  3  4  1  0
  4  5  1  0
  3  6  1  0
  6  7  1  0
  6  8  2  0
  8  9  1  0
  9 10  2  0
  9 11  1  1
  9 12  1  0
 12 13  1  0
  1 14  1  0
  1 15  1  0
  1 16  1  0
  2 17  1  0
  2 18  1  0
  4 19  1  0
  4 20  1  0
  5 21  1  0
  5 22  1  0
  5 23  1  0
  7 24  1  0
  7 25  1  0
  7 26  1  0
 13 27  1  0
 13 28  1  0
 13 29  1  0
M  END
$$$$
