A232_00_P8R_C5N7E
     RDKit          3D

 29 28  0  0  0  0  0  0  0  0999 V2000
   -1.3637    2.2438   -1.1330 C   0  0  0  0  0  0  0  0  0  0  0  0
   -1.5091    1.5245    0.1995 C   0  0  0  0  0  0  0  0  0  0  0  0
   -1.3566    0.0724    0.0298 N   0  0  0  0  0  0  0  0  0  0  0  0
   -2.5965   -0.6653   -0.2153 C   0  0  0  0  0  0  0  0  0  0  0  0
   -3.2082   -1.1342    1.0960 C   0  0  0  0  0  0  0  0  0  0  0  0
   -0.0869   -0.5034    0.0085 C   0  0  0  0  0  0  0  0  0  0  0  0
    0.0529   -2.0079   -0.1683 C   0  0  0  0  0  0  0  0  0  0  0  0
    0.9670    0.2465    0.1041 N   0  0  0  0  0  0  0  0  0  0  0  0
    2.4829   -0.2423    0.0448 P   0  0  2  0  0  5  0  0  0  0  0  0
    2.9180   -1.1129   -1.0982 O   0  0  0  0  0  0  0  0  0  0  0  0
    2.7151   -1.0116    1.3981 F   0  0  0  0  0  0  0  0  0  0  0  0
    3.4336    1.0496    0.2424 O   0  0  0  0  0  0  0  0  0  0  0  0
    4.8232    0.8030    0.2656 C   0  0  0  0  0  0  0  0  0  0  0  0
   -2.1142    1.8995   -1.8520 H   0  0  0  0  0  0  0  0  0  0  0  0
   -0.3768    2.0738   -1.5750 H   0  0  0  0  0  0  0  0  0  0  0  0
   -1.4928    3.3220   -0.9968 H   0  0  0  0  0  0  0  0  0  0  0  0
   -0.7759    1.9097    0.9179 H   0  0  0  0  0  0  0  0  0  0  0  0
   -2.4927    1.7546    0.6267 H   0  0  0  0  0  0  0  0  0  0  0  0
   -2.4260   -1.5166   -0.8828 H   0  0  0  0  0  0  0  0  0  0  0  0
   -3.3199   -0.0270   -0.7375 H   0  0  0  0  0  0  0  0  0  0  0  0
   -3.4578   -0.2850    1.7405 H   0  0  0  0  0  0  0  0  0  0  0  0
   -4.1276   -1.6964    0.9053 H   0  0  0  0  0  0  0  0  0  0  0  0
   -2.5221   -1.7804    1.6522 H   0  0  0  0  0  0  0  0  0  0  0  0
   -0.7917   -2.5444    0.2667 H   0  0  0  0  0  0  0  0  0  0  0  0
    0.1095   -2.2337   -1.2368 H   0  0  0  0  0  0  0  0  0  0  0  0
    0.9500   -2.3862    0.3258 H   0  0  0  0  0  0  0  0  0  0  0  0
    5.3405    1.7307    0.5232 H   0  0  0  0  0  0  0  0  0  0  0  0
    5.1622    0.4724   -0.7198 H   0  0  0  0  0  0  0  0  0  0  0  0
    5.0637    0.0449    1.0160 H   0  0  0  0  0  0  0  0  0  0  0  0
  1  2  1  0
  2  3  1  0
  3  4  1  0
  4  5  1  0
  3  6  1  0
  6  7  1  0
  6  8  2  0
  8  9  1  0
  9 10  2  0
  9 11  1  1
  9 12  1  0
 12 13  1  0
  1 14  1  0
  1 15  1  0
  1 16  1  0
  2 17  1  0
  2 18  1  0
  4 19  1  0
  4 20  1  0
  5 21  1  0
  5 22  1  0
  5 23  1  0
  7 24  1  0
  7 25  1  0
  7 26  1  0
 13 27  1  0
 13 28  1  0
 13 29  1  0
M  END
$$$$
