A232_01_P8S_C5N7E
     RDKit          3D

 29 28  0  0  0  0  0  0  0  0999 V2000
   -1.4295    2.4853   -0.6333 C   0  0  0  0  0  0  0  0  0  0  0  0
   -1.4964    1.5020    0.5247 C   0  0  0  0  0  0  0  0  0  0  0  0
   -1.3804    0.1209    0.0329 N   0  0  0  0  0  0  0  0  0  0  0  0
   -2.6512   -0.5683   -0.1919 C   0  0  0  0  0  0  0  0  0  0  0  0
   -3.0075   -1.4456    0.9973 C   0  0  0  0  0  0  0  0  0  0  0  0
   -0.1223   -0.4550   -0.1427 C   0  0  0  0  0  0  0  0  0  0  0  0
    0.0058   -1.8974   -0.6099 C   0  0  0  0  0  0  0  0  0  0  0  0
    0.9456    0.2328    0.1236 N   0  0  0  0  0  0  0  0  0  0  0  0
    2.4502   -0.2827    0.0119 P   0  0  1  0  0  5  0  0  0  0  0  0
    2.8270   -1.5737    0.6786 O   0  0  0  0  0  0  0  0  0  0  0  0
    2.7245   -0.4008   -1.5335 F   0  0  0  0  0  0  0  0  0  0  0  0
    3.4282    0.9381    0.4186 O   0  0  0  0  0  0  0  0  0  0  0  0
    4.8137    0.6824    0.3312 C   0  0  0  0  0  0  0  0  0  0  0  0
   -2.2330    2.3001   -1.3539 H   0  0  0  0  0  0  0  0  0  0  0  0
   -0.4774    2.4076   -1.1679 H   0  0  0  0  0  0  0  0  0  0  0  0
   -1.5305    3.5112   -0.2660 H   0  0  0  0  0  0  0  0  0  0  0  0
   -0.7110    1.7263    1.2559 H   0  0  0  0  0  0  0  0  0  0  0  0
   -2.4437    1.6383    1.0609 H   0  0  0  0  0  0  0  0  0  0  0  0
   -2.6251   -1.1552   -1.1151 H   0  0  0  0  0  0  0  0  0  0  0  0
   -3.4570    0.1608   -0.3445 H   0  0  0  0  0  0  0  0  0  0  0  0
   -3.0816   -0.8521    1.9147 H   0  0  0  0  0  0  0  0  0  0  0  0
   -3.9715   -1.9362    0.8306 H   0  0  0  0  0  0  0  0  0  0  0  0
   -2.2562   -2.2234    1.1641 H   0  0  0  0  0  0  0  0  0  0  0  0
   -0.8887   -2.2630   -1.1120 H   0  0  0  0  0  0  0  0  0  0  0  0
    0.8301   -1.9975   -1.3204 H   0  0  0  0  0  0  0  0  0  0  0  0
    0.2029   -2.5323    0.2586 H   0  0  0  0  0  0  0  0  0  0  0  0
    5.3552    1.6139    0.5141 H   0  0  0  0  0  0  0  0  0  0  0  0
    5.1084   -0.0507    1.0868 H   0  0  0  0  0  0  0  0  0  0  0  0
    5.0715    0.3142   -0.6656 H   0  0  0  0  0  0  0  0  0  0  0  0
  1  2  1  0
  2  3  1  0
  3  4  1  0
  4  5  1  0
  3  6  1  0
  6  7  1  0
  6  8  2  0
  8  9  1  0
  9 10  2  0
  9 11  1  6
  9 12  1  0
 12 13  1  0
  1 14  1  0
  1 15  1  0
  1 16  1  0
  2 17  1  0
  2 18  1  0
  4 19  1  0
  4 20  1  0
  5 21  1  0
  5 22  1  0
  5 23  1  0
  7 24  1  0
  7 25  1  0
  7 26  1  0
 13 27  1  0
 13 28  1  0
 13 29  1  0
M  END
$$$$
