A234_01_P3R_N6C7E
     RDKit          3D

 32 31  0  0  0  0  0  0  0  0999 V2000
    4.3366    0.2124    1.9623 C   0  0  0  0  0  0  0  0  0  0  0  0
    3.9023    0.7923    0.6322 C   0  0  0  0  0  0  0  0  0  0  0  0
    2.4958    0.6695    0.5224 O   0  0  0  0  0  0  0  0  0  0  0  0
    1.8571    1.0439   -0.9156 P   0  0  1  0  0  5  0  0  0  0  0  0
    2.3764    2.3479   -1.4477 O   0  0  0  0  0  0  0  0  0  0  0  0
    2.3976   -0.1221   -1.8240 F   0  0  0  0  0  0  0  0  0  0  0  0
    0.2800    0.8358   -0.8518 N   0  0  0  0  0  0  0  0  0  0  0  0
   -0.3839   -0.1956   -0.4327 C   0  0  0  0  0  0  0  0  0  0  0  0
    0.3352   -1.4287    0.0904 C   0  0  0  0  0  0  0  0  0  0  0  0
   -1.7783   -0.1648   -0.4210 N   0  0  0  0  0  0  0  0  0  0  0  0
   -2.6194   -1.2244    0.1368 C   0  0  0  0  0  0  0  0  0  0  0  0
   -3.0301   -2.2092   -0.9472 C   0  0  0  0  0  0  0  0  0  0  0  0
   -2.4977    1.0201   -0.9115 C   0  0  0  0  0  0  0  0  0  0  0  0
   -2.6115    2.0731    0.1804 C   0  0  0  0  0  0  0  0  0  0  0  0
    4.0463   -0.8409    2.0366 H   0  0  0  0  0  0  0  0  0  0  0  0
    3.8471    0.7365    2.7899 H   0  0  0  0  0  0  0  0  0  0  0  0
    5.4202    0.2898    2.0870 H   0  0  0  0  0  0  0  0  0  0  0  0
    4.3853    0.2524   -0.1886 H   0  0  0  0  0  0  0  0  0  0  0  0
    4.1788    1.8496    0.5746 H   0  0  0  0  0  0  0  0  0  0  0  0
    0.4162   -1.3540    1.1786 H   0  0  0  0  0  0  0  0  0  0  0  0
    1.3346   -1.5319   -0.3324 H   0  0  0  0  0  0  0  0  0  0  0  0
   -0.2077   -2.3403   -0.1662 H   0  0  0  0  0  0  0  0  0  0  0  0
   -3.5217   -0.7930    0.5875 H   0  0  0  0  0  0  0  0  0  0  0  0
   -2.1092   -1.7481    0.9521 H   0  0  0  0  0  0  0  0  0  0  0  0
   -3.6474   -3.0059   -0.5208 H   0  0  0  0  0  0  0  0  0  0  0  0
   -3.6115   -1.7131   -1.7314 H   0  0  0  0  0  0  0  0  0  0  0  0
   -2.1592   -2.6700   -1.4234 H   0  0  0  0  0  0  0  0  0  0  0  0
   -3.5039    0.7409   -1.2470 H   0  0  0  0  0  0  0  0  0  0  0  0
   -1.9976    1.4412   -1.7915 H   0  0  0  0  0  0  0  0  0  0  0  0
   -1.6258    2.4111    0.5157 H   0  0  0  0  0  0  0  0  0  0  0  0
   -3.1608    2.9443   -0.1899 H   0  0  0  0  0  0  0  0  0  0  0  0
   -3.1437    1.6810    1.0533 H   0  0  0  0  0  0  0  0  0  0  0  0
  1  2  1  0
  2  3  1  0
  3  4  1  0
  4  5  2  0
  4  6  1  6
  4  7  1  0
  7  8  2  0
  8  9  1  0
  8 10  1  0
 10 11  1  0
 11 12  1  0
 10 13  1  0
 13 14  1  0
  1 15  1  0
  1 16  1  0
  1 17  1  0
  2 18  1  0
  2 19  1  0
  9 20  1  0
  9 21  1  0
  9 22  1  0
 11 23  1  0
 11 24  1  0
 12 25  1  0
 12 26  1  0
 12 27  1  0
 13 28  1  0
 13 29  1  0
 14 30  1  0
 14 31  1  0
 14 32  1  0
M  END
$$$$
