A234_00_P3S_N6C7E
     RDKit          3D

 32 31  0  0  0  0  0  0  0  0999 V2000
    4.5969    0.8884    1.5680 C   0  0  0  0  0  0  0  0  0  0  0  0
    4.0643    0.2176    0.3188 C   0  0  0  0  0  0  0  0  0  0  0  0
    2.6579    0.3776    0.2822 O   0  0  0  0  0  0  0  0  0  0  0  0
    1.9130   -0.1601   -1.0481 P   0  0  2  0  0  5  0  0  0  0  0  0
    2.3002   -1.5660   -1.4036 O   0  0  0  0  0  0  0  0  0  0  0  0
    2.4799    0.8196   -2.1416 F   0  0  0  0  0  0  0  0  0  0  0  0
    0.3659    0.2099   -0.9390 N   0  0  0  0  0  0  0  0  0  0  0  0
   -0.5252   -0.4241   -0.2403 C   0  0  0  0  0  0  0  0  0  0  0  0
   -0.1179   -1.6440    0.5730 C   0  0  0  0  0  0  0  0  0  0  0  0
   -1.8550   -0.0041   -0.2652 N   0  0  0  0  0  0  0  0  0  0  0  0
   -2.9507   -0.6634    0.4456 C   0  0  0  0  0  0  0  0  0  0  0  0
   -3.4360   -1.8825   -0.3220 C   0  0  0  0  0  0  0  0  0  0  0  0
   -2.2472    1.1526   -1.0840 C   0  0  0  0  0  0  0  0  0  0  0  0
   -2.0622    2.4437   -0.3022 C   0  0  0  0  0  0  0  0  0  0  0  0
    5.6835    0.7843    1.6340 H   0  0  0  0  0  0  0  0  0  0  0  0
    4.1447    0.4501    2.4639 H   0  0  0  0  0  0  0  0  0  0  0  0
    4.3430    1.9536    1.5718 H   0  0  0  0  0  0  0  0  0  0  0  0
    4.5100    0.6724   -0.5716 H   0  0  0  0  0  0  0  0  0  0  0  0
    4.3080   -0.8493    0.3332 H   0  0  0  0  0  0  0  0  0  0  0  0
   -0.8351   -1.8948    1.3530 H   0  0  0  0  0  0  0  0  0  0  0  0
    0.8405   -1.4706    1.0688 H   0  0  0  0  0  0  0  0  0  0  0  0
   -0.0221   -2.5001   -0.1010 H   0  0  0  0  0  0  0  0  0  0  0  0
   -3.7923    0.0292    0.5730 H   0  0  0  0  0  0  0  0  0  0  0  0
   -2.6548   -0.9359    1.4632 H   0  0  0  0  0  0  0  0  0  0  0  0
   -4.2720   -2.3534    0.2046 H   0  0  0  0  0  0  0  0  0  0  0  0
   -3.7783   -1.6044   -1.3244 H   0  0  0  0  0  0  0  0  0  0  0  0
   -2.6442   -2.6289   -0.4359 H   0  0  0  0  0  0  0  0  0  0  0  0
   -1.6695    1.1893   -2.0150 H   0  0  0  0  0  0  0  0  0  0  0  0
   -3.2960    1.0639   -1.3933 H   0  0  0  0  0  0  0  0  0  0  0  0
   -1.0165    2.5878   -0.0119 H   0  0  0  0  0  0  0  0  0  0  0  0
   -2.3680    3.3017   -0.9088 H   0  0  0  0  0  0  0  0  0  0  0  0
   -2.6649    2.4401    0.6121 H   0  0  0  0  0  0  0  0  0  0  0  0
  1  2  1  0
  2  3  1  0
  3  4  1  0
  4  5  2  0
  4  6  1  6
  4  7  1  0
  7  8  2  0
  8  9  1  0
  8 10  1  0
 10 11  1  0
 11 12  1  0
 10 13  1  0
 13 14  1  0
  1 15  1  0
  1 16  1  0
  1 17  1  0
  2 18  1  0
  2 19  1  0
  9 20  1  0
  9 21  1  0
  9 22  1  0
 11 23  1  0
 11 24  1  0
 12 25  1  0
 12 26  1  0
 12 27  1  0
 13 28  1  0
 13 29  1  0
 14 30  1  0
 14 31  1  0
 14 32  1  0
M  END
$$$$
