A242_01_P7S
     RDKit          3D

 39 38  0  0  0  0  0  0  0  0999 V2000
    0.9247    0.2613    2.5950 C   0  0  0  0  0  0  0  0  0  0  0  0
    1.4712   -0.7057    1.5541 C   0  0  0  0  0  0  0  0  0  0  0  0
    1.0814   -0.3625    0.1816 N   0  0  0  0  0  0  0  0  0  0  0  0
    1.8582   -0.9837   -0.8980 C   0  0  0  0  0  0  0  0  0  0  0  0
    3.2806   -0.4501   -0.9752 C   0  0  0  0  0  0  0  0  0  0  0  0
   -0.1505    0.1688   -0.1117 C   0  0  0  0  0  0  0  0  0  0  0  0
   -0.3059    1.3852   -0.5284 N   0  0  0  0  0  0  0  0  0  0  0  0
    0.8469    2.4578   -0.7930 P   0  0  1  0  0  5  0  0  0  0  0  0
   -0.0312    3.9812   -1.1602 C   0  0  0  0  0  0  0  0  0  0  0  0
    1.8954    2.7014    0.2582 O   0  0  0  0  0  0  0  0  0  0  0  0
    1.5536    1.9580   -2.1116 F   0  0  0  0  0  0  0  0  0  0  0  0
   -1.2601   -0.6522    0.0435 N   0  0  0  0  0  0  0  0  0  0  0  0
   -1.2195   -2.1047    0.2270 C   0  0  0  0  0  0  0  0  0  0  0  0
   -1.6882   -2.5020    1.6203 C   0  0  0  0  0  0  0  0  0  0  0  0
   -2.5964   -0.1099   -0.2619 C   0  0  0  0  0  0  0  0  0  0  0  0
   -2.8724   -0.1206   -1.7595 C   0  0  0  0  0  0  0  0  0  0  0  0
    1.2707   -0.0288    3.5924 H   0  0  0  0  0  0  0  0  0  0  0  0
    1.2664    1.2827    2.4065 H   0  0  0  0  0  0  0  0  0  0  0  0
   -0.1691    0.2692    2.6135 H   0  0  0  0  0  0  0  0  0  0  0  0
    1.1538   -1.7257    1.7911 H   0  0  0  0  0  0  0  0  0  0  0  0
    2.5621   -0.6973    1.6456 H   0  0  0  0  0  0  0  0  0  0  0  0
    1.3677   -0.8014   -1.8623 H   0  0  0  0  0  0  0  0  0  0  0  0
    1.8859   -2.0706   -0.7599 H   0  0  0  0  0  0  0  0  0  0  0  0
    3.7785   -0.8416   -1.8682 H   0  0  0  0  0  0  0  0  0  0  0  0
    3.3034    0.6411   -1.0248 H   0  0  0  0  0  0  0  0  0  0  0  0
    3.8752   -0.7575   -0.1100 H   0  0  0  0  0  0  0  0  0  0  0  0
    0.6765    4.7591   -1.4588 H   0  0  0  0  0  0  0  0  0  0  0  0
   -0.5818    4.3257   -0.2808 H   0  0  0  0  0  0  0  0  0  0  0  0
   -0.7389    3.8239   -1.9787 H   0  0  0  0  0  0  0  0  0  0  0  0
   -0.2241   -2.5190    0.0524 H   0  0  0  0  0  0  0  0  0  0  0  0
   -1.8640   -2.5912   -0.5152 H   0  0  0  0  0  0  0  0  0  0  0  0
   -1.6009   -3.5853    1.7509 H   0  0  0  0  0  0  0  0  0  0  0  0
   -1.0965   -2.0172    2.4010 H   0  0  0  0  0  0  0  0  0  0  0  0
   -2.7355   -2.2313    1.7856 H   0  0  0  0  0  0  0  0  0  0  0  0
   -2.6970    0.9083    0.1326 H   0  0  0  0  0  0  0  0  0  0  0  0
   -3.3725   -0.6968    0.2422 H   0  0  0  0  0  0  0  0  0  0  0  0
   -2.8258   -1.1363   -2.1649 H   0  0  0  0  0  0  0  0  0  0  0  0
   -2.1497    0.4896   -2.3097 H   0  0  0  0  0  0  0  0  0  0  0  0
   -3.8719    0.2778   -1.9605 H   0  0  0  0  0  0  0  0  0  0  0  0
  1  2  1  0
  2  3  1  0
  3  4  1  0
  4  5  1  0
  3  6  1  0
  6  7  2  3
  7  8  1  0
  8  9  1  0
  8 10  2  0
  8 11  1  6
  6 12  1  0
 12 13  1  0
 13 14  1  0
 12 15  1  0
 15 16  1  0
  1 17  1  0
  1 18  1  0
  1 19  1  0
  2 20  1  0
  2 21  1  0
  4 22  1  0
  4 23  1  0
  5 24  1  0
  5 25  1  0
  5 26  1  0
  9 27  1  0
  9 28  1  0
  9 29  1  0
 13 30  1  0
 13 31  1  0
 14 32  1  0
 14 33  1  0
 14 34  1  0
 15 35  1  0
 15 36  1  0
 16 37  1  0
 16 38  1  0
 16 39  1  0
M  END
$$$$
