DDVP_00_achiral
     RDKit          3D

 18 17  0  0  0  0  0  0  0  0999 V2000
   -1.6633   -1.5635    1.3907 C   0  0  0  0  0  0  0  0  0  0  0  0
   -1.5377   -0.8179    0.1972 O   0  0  0  0  0  0  0  0  0  0  0  0
   -0.3745    0.2963    0.1660 P   0  0  0  0  0  0  0  0  0  0  0  0
   -0.4086    1.2818    1.2928 O   0  0  0  0  0  0  0  0  0  0  0  0
   -0.5193    0.9437   -1.3029 O   0  0  0  0  0  0  0  0  0  0  0  0
   -1.6383    1.7794   -1.5146 C   0  0  0  0  0  0  0  0  0  0  0  0
    0.9830   -0.5731    0.0579 O   0  0  0  0  0  0  0  0  0  0  0  0
    2.2346   -0.0191   -0.0472 C   0  0  0  0  0  0  0  0  0  0  0  0
    3.3636   -0.7274   -0.1419 C   0  0  0  0  0  0  0  0  0  0  0  0
    4.8845    0.0786   -0.2690 Cl  0  0  0  0  0  0  0  0  0  0  0  0
    3.3609   -2.4522   -0.1399 Cl  0  0  0  0  0  0  0  0  0  0  0  0
   -2.4547   -2.3056    1.2594 H   0  0  0  0  0  0  0  0  0  0  0  0
   -0.7270   -2.0813    1.6158 H   0  0  0  0  0  0  0  0  0  0  0  0
   -1.9319   -0.9032    2.2196 H   0  0  0  0  0  0  0  0  0  0  0  0
   -1.5811    2.6561   -0.8640 H   0  0  0  0  0  0  0  0  0  0  0  0
   -2.5646    1.2320   -1.3207 H   0  0  0  0  0  0  0  0  0  0  0  0
   -1.6361    2.1118   -2.5557 H   0  0  0  0  0  0  0  0  0  0  0  0
    2.2107    1.0637   -0.0434 H   0  0  0  0  0  0  0  0  0  0  0  0
  1  2  1  0
  2  3  1  0
  3  4  2  0
  3  5  1  0
  5  6  1  0
  3  7  1  0
  7  8  1  0
  8  9  2  3
  9 10  1  0
  9 11  1  0
  1 12  1  0
  1 13  1  0
  1 14  1  0
  6 15  1  0
  6 16  1  0
  6 17  1  0
  8 18  1  0
M  END
$$$$
