DETAB_01_P3S
     RDKit          3D

 27 26  0  0  0  0  0  0  0  0999 V2000
    3.6693    0.8840    1.5507 C   0  0  0  0  0  0  0  0  0  0  0  0
    2.9589    0.1617    0.4248 C   0  0  0  0  0  0  0  0  0  0  0  0
    1.5730    0.1122    0.7223 O   0  0  0  0  0  0  0  0  0  0  0  0
    0.6274   -0.7445   -0.2723 P   0  0  1  0  0  5  0  0  0  0  0  0
    1.0480   -0.6534   -1.7107 O   0  0  0  0  0  0  0  0  0  0  0  0
    0.9711   -2.4919    0.2003 C   0  0  0  0  0  0  0  0  0  0  0  0
    1.1847   -3.5929    0.5154 N   0  0  0  0  0  0  0  0  0  0  0  0
   -0.9454   -0.3747    0.0874 N   0  0  0  0  0  0  0  0  0  0  0  0
   -1.2602    1.0463    0.2705 C   0  0  0  0  0  0  0  0  0  0  0  0
   -1.2294    1.8769   -1.0066 C   0  0  0  0  0  0  0  0  0  0  0  0
   -1.9545   -1.1025   -0.6941 C   0  0  0  0  0  0  0  0  0  0  0  0
   -3.3637   -1.0546   -0.1152 C   0  0  0  0  0  0  0  0  0  0  0  0
    3.5124    0.3642    2.5016 H   0  0  0  0  0  0  0  0  0  0  0  0
    3.2703    1.8966    1.6718 H   0  0  0  0  0  0  0  0  0  0  0  0
    4.7436    0.9487    1.3567 H   0  0  0  0  0  0  0  0  0  0  0  0
    3.1058    0.6994   -0.5171 H   0  0  0  0  0  0  0  0  0  0  0  0
    3.3547   -0.8532    0.3210 H   0  0  0  0  0  0  0  0  0  0  0  0
   -2.2312    1.1678    0.7626 H   0  0  0  0  0  0  0  0  0  0  0  0
   -0.5437    1.4779    0.9794 H   0  0  0  0  0  0  0  0  0  0  0  0
   -1.9951    1.5564   -1.7192 H   0  0  0  0  0  0  0  0  0  0  0  0
   -0.2528    1.8229   -1.4971 H   0  0  0  0  0  0  0  0  0  0  0  0
   -1.4214    2.9285   -0.7690 H   0  0  0  0  0  0  0  0  0  0  0  0
   -1.9655   -0.7579   -1.7343 H   0  0  0  0  0  0  0  0  0  0  0  0
   -1.6672   -2.1599   -0.7307 H   0  0  0  0  0  0  0  0  0  0  0  0
   -3.8110   -0.0607   -0.2101 H   0  0  0  0  0  0  0  0  0  0  0  0
   -3.3674   -1.3424    0.9412 H   0  0  0  0  0  0  0  0  0  0  0  0
   -4.0107   -1.7549   -0.6542 H   0  0  0  0  0  0  0  0  0  0  0  0
  1  2  1  0
  2  3  1  0
  3  4  1  0
  4  5  2  0
  4  6  1  1
  6  7  3  0
  4  8  1  0
  8  9  1  0
  9 10  1  0
  8 11  1  0
 11 12  1  0
  1 13  1  0
  1 14  1  0
  1 15  1  0
  2 16  1  0
  2 17  1  0
  9 18  1  0
  9 19  1  0
 10 20  1  0
 10 21  1  0
 10 22  1  0
 11 23  1  0
 11 24  1  0
 12 25  1  0
 12 26  1  0
 12 27  1  0
M  END
$$$$
