FEN_00_P3R
     RDKit          3D

 41 41  0  0  0  0  0  0  0  0999 V2000
   -2.3135    3.9360   -0.4131 C   0  0  0  0  0  0  0  0  0  0  0  0
   -2.4602    2.6292   -1.1644 C   0  0  0  0  0  0  0  0  0  0  0  0
   -2.3788    1.5620   -0.2347 O   0  0  0  0  0  0  0  0  0  0  0  0
   -2.2240    0.0729   -0.8432 P   0  0  2  0  0  5  0  0  0  0  0  0
   -3.2430   -0.1808   -1.9144 O   0  0  0  0  0  0  0  0  0  0  0  0
   -2.3266   -0.9265    0.4515 N   0  0  0  0  0  0  0  0  0  0  0  0
   -1.9723   -2.3342    0.3081 C   0  0  0  0  0  0  0  0  0  0  0  0
   -3.0768   -3.1255   -0.3885 C   0  0  0  0  0  0  0  0  0  0  0  0
   -1.7089   -2.9049    1.7009 C   0  0  0  0  0  0  0  0  0  0  0  0
   -0.7165    0.0520   -1.4114 O   0  0  0  0  0  0  0  0  0  0  0  0
    0.4348    0.3306   -0.7318 C   0  0  0  0  0  0  0  0  0  0  0  0
    0.4980    0.7106    0.6021 C   0  0  0  0  0  0  0  0  0  0  0  0
    1.7374    0.9729    1.1921 C   0  0  0  0  0  0  0  0  0  0  0  0
    2.9254    0.8532    0.4576 C   0  0  0  0  0  0  0  0  0  0  0  0
    4.4696    1.2118    1.2882 S   0  0  0  0  0  0  0  0  0  0  0  0
    4.6623   -0.3446    2.1946 C   0  0  0  0  0  0  0  0  0  0  0  0
    2.8680    0.4787   -0.8962 C   0  0  0  0  0  0  0  0  0  0  0  0
    4.1022    0.3485   -1.7462 C   0  0  0  0  0  0  0  0  0  0  0  0
    1.6130    0.2180   -1.4741 C   0  0  0  0  0  0  0  0  0  0  0  0
   -3.0948    4.0337    0.3479 H   0  0  0  0  0  0  0  0  0  0  0  0
   -1.3525    3.9730    0.1107 H   0  0  0  0  0  0  0  0  0  0  0  0
   -2.3767    4.7881   -1.0956 H   0  0  0  0  0  0  0  0  0  0  0  0
   -1.6673    2.5372   -1.9132 H   0  0  0  0  0  0  0  0  0  0  0  0
   -3.4304    2.5907   -1.6692 H   0  0  0  0  0  0  0  0  0  0  0  0
   -3.2431   -0.8494    0.8782 H   0  0  0  0  0  0  0  0  0  0  0  0
   -1.0474   -2.4254   -0.2724 H   0  0  0  0  0  0  0  0  0  0  0  0
   -3.2273   -2.7806   -1.4159 H   0  0  0  0  0  0  0  0  0  0  0  0
   -4.0313   -3.0392    0.1427 H   0  0  0  0  0  0  0  0  0  0  0  0
   -2.8169   -4.1887   -0.4368 H   0  0  0  0  0  0  0  0  0  0  0  0
   -0.9032   -2.3575    2.2032 H   0  0  0  0  0  0  0  0  0  0  0  0
   -1.4044   -3.9552    1.6367 H   0  0  0  0  0  0  0  0  0  0  0  0
   -2.6012   -2.8522    2.3352 H   0  0  0  0  0  0  0  0  0  0  0  0
   -0.3933    0.8171    1.2119 H   0  0  0  0  0  0  0  0  0  0  0  0
    1.7653    1.2787    2.2359 H   0  0  0  0  0  0  0  0  0  0  0  0
    5.6025   -0.3211    2.7519 H   0  0  0  0  0  0  0  0  0  0  0  0
    4.6895   -1.1904    1.5020 H   0  0  0  0  0  0  0  0  0  0  0  0
    3.8420   -0.4832    2.9041 H   0  0  0  0  0  0  0  0  0  0  0  0
    3.8543    0.0486   -2.7702 H   0  0  0  0  0  0  0  0  0  0  0  0
    4.7706   -0.4157   -1.3367 H   0  0  0  0  0  0  0  0  0  0  0  0
    4.6286    1.3064   -1.8067 H   0  0  0  0  0  0  0  0  0  0  0  0
    1.5469   -0.0750   -2.5204 H   0  0  0  0  0  0  0  0  0  0  0  0
  1  2  1  0
  2  3  1  0
  4  3  1  1
  4  5  2  0
  4  6  1  0
  6  7  1  0
  7  8  1  0
  7  9  1  0
  4 10  1  0
 10 11  1  0
 11 12  1  0
 12 13  2  0
 13 14  1  0
 14 15  1  0
 15 16  1  0
 14 17  2  0
 17 18  1  0
 17 19  1  0
 19 11  2  0
  1 20  1  0
  1 21  1  0
  1 22  1  0
  2 23  1  0
  2 24  1  0
  6 25  1  0
  7 26  1  0
  8 27  1  0
  8 28  1  0
  8 29  1  0
  9 30  1  0
  9 31  1  0
  9 32  1  0
 12 33  1  0
 13 34  1  0
 16 35  1  0
 16 36  1  0
 16 37  1  0
 18 38  1  0
 18 39  1  0
 18 40  1  0
 19 41  1  0
M  END
$$$$
