GA_01_P3S
     RDKit          3D

 21 20  0  0  0  0  0  0  0  0999 V2000
    3.2706    1.0246    0.1828 C   0  0  0  0  0  0  0  0  0  0  0  0
    2.3396   -0.0911   -0.2446 C   0  0  0  0  0  0  0  0  0  0  0  0
    1.0033    0.3768   -0.1606 O   0  0  0  0  0  0  0  0  0  0  0  0
   -0.1787   -0.7014   -0.3989 P   0  0  1  0  0  5  0  0  0  0  0  0
    0.1767   -1.7514   -1.4115 O   0  0  0  0  0  0  0  0  0  0  0  0
   -0.2686   -1.6217    1.1946 C   0  0  0  0  0  0  0  0  0  0  0  0
   -0.3425   -2.1687    2.2203 N   0  0  0  0  0  0  0  0  0  0  0  0
   -1.5756    0.1459   -0.6270 N   0  0  0  0  0  0  0  0  0  0  0  0
   -1.9379    1.1343    0.3816 C   0  0  0  0  0  0  0  0  0  0  0  0
   -2.7475   -0.6364   -1.0041 C   0  0  0  0  0  0  0  0  0  0  0  0
    3.1363    1.9047   -0.4547 H   0  0  0  0  0  0  0  0  0  0  0  0
    4.3148    0.7045    0.1274 H   0  0  0  0  0  0  0  0  0  0  0  0
    3.0508    1.3381    1.2087 H   0  0  0  0  0  0  0  0  0  0  0  0
    2.4717   -0.9604    0.4070 H   0  0  0  0  0  0  0  0  0  0  0  0
    2.5537   -0.3840   -1.2771 H   0  0  0  0  0  0  0  0  0  0  0  0
   -2.7653    1.7656    0.0394 H   0  0  0  0  0  0  0  0  0  0  0  0
   -1.0961    1.8047    0.5823 H   0  0  0  0  0  0  0  0  0  0  0  0
   -2.2266    0.6603    1.3255 H   0  0  0  0  0  0  0  0  0  0  0  0
   -2.5158   -1.2816   -1.8579 H   0  0  0  0  0  0  0  0  0  0  0  0
   -3.5757    0.0098   -1.3148 H   0  0  0  0  0  0  0  0  0  0  0  0
   -3.0870   -1.2725   -0.1799 H   0  0  0  0  0  0  0  0  0  0  0  0
  1  2  1  0
  2  3  1  0
  3  4  1  0
  4  5  2  0
  4  6  1  1
  6  7  3  0
  4  8  1  0
  8  9  1  0
  8 10  1  0
  1 11  1  0
  1 12  1  0
  1 13  1  0
  2 14  1  0
  2 15  1  0
  9 16  1  0
  9 17  1  0
  9 18  1  0
 10 19  1  0
 10 20  1  0
 10 21  1  0
M  END
$$$$
