GB_00_P4S
     RDKit          3D

 18 17  0  0  0  0  0  0  0  0999 V2000
   -1.8144    0.1414    1.3266 C   0  0  0  0  0  0  0  0  0  0  0  0
   -1.0596   -0.1627    0.0411 C   0  0  0  0  0  0  0  0  0  0  0  0
   -1.6612    0.5812   -1.1418 C   0  0  0  0  0  0  0  0  0  0  0  0
    0.2857    0.2668    0.2112 O   0  0  0  0  0  0  0  0  0  0  0  0
    1.4536   -0.7463   -0.2626 P   0  0  2  0  0  5  0  0  0  0  0  0
    2.9409    0.1853    0.0187 C   0  0  0  0  0  0  0  0  0  0  0  0
    1.2791   -1.2277   -1.6729 O   0  0  0  0  0  0  0  0  0  0  0  0
    1.2883   -1.9410    0.7440 F   0  0  0  0  0  0  0  0  0  0  0  0
   -1.3552   -0.3850    2.1704 H   0  0  0  0  0  0  0  0  0  0  0  0
   -1.7742    1.2103    1.5640 H   0  0  0  0  0  0  0  0  0  0  0  0
   -2.8628   -0.1633    1.2544 H   0  0  0  0  0  0  0  0  0  0  0  0
   -1.0936   -1.2423   -0.1453 H   0  0  0  0  0  0  0  0  0  0  0  0
   -2.7054    0.2959   -1.3013 H   0  0  0  0  0  0  0  0  0  0  0  0
   -1.0987    0.3671   -2.0566 H   0  0  0  0  0  0  0  0  0  0  0  0
   -1.6121    1.6653   -0.9906 H   0  0  0  0  0  0  0  0  0  0  0  0
    3.0033    0.5038    1.0628 H   0  0  0  0  0  0  0  0  0  0  0  0
    2.9659    1.0754   -0.6158 H   0  0  0  0  0  0  0  0  0  0  0  0
    3.8204   -0.4241   -0.2060 H   0  0  0  0  0  0  0  0  0  0  0  0
  1  2  1  0
  2  3  1  0
  2  4  1  0
  4  5  1  0
  5  6  1  0
  5  7  2  0
  5  8  1  1
  1  9  1  0
  1 10  1  0
  1 11  1  0
  2 12  1  0
  3 13  1  0
  3 14  1  0
  3 15  1  0
  6 16  1  0
  6 17  1  0
  6 18  1  0
M  END
$$$$
