GD_03_C1R_P3R
     RDKit          3D

 27 26  0  0  0  0  0  0  0  0999 V2000
    0.2061   -1.6511   -1.5068 C   0  0  0  0  0  0  0  0  0  0  0  0
    0.2497   -0.5816   -0.4151 C   0  0  1  0  0  0  0  0  0  0  0  0
    0.8717    0.5756   -0.9739 O   0  0  0  0  0  0  0  0  0  0  0  0
    2.4600    0.7904   -0.7557 P   0  0  1  0  0  5  0  0  0  0  0  0
    2.5846    1.5300    0.8585 C   0  0  0  0  0  0  0  0  0  0  0  0
    3.2638   -0.4673   -0.9101 O   0  0  0  0  0  0  0  0  0  0  0  0
    2.8179    1.8076   -1.8980 F   0  0  0  0  0  0  0  0  0  0  0  0
   -1.1477   -0.1890    0.1604 C   0  0  0  0  0  0  0  0  0  0  0  0
   -0.9669    0.8910    1.2482 C   0  0  0  0  0  0  0  0  0  0  0  0
   -1.8336   -1.4066    0.8071 C   0  0  0  0  0  0  0  0  0  0  0  0
   -2.0761    0.3875   -0.9258 C   0  0  0  0  0  0  0  0  0  0  0  0
    1.2175   -1.8806   -1.8582 H   0  0  0  0  0  0  0  0  0  0  0  0
   -0.3439   -1.3048   -2.3874 H   0  0  0  0  0  0  0  0  0  0  0  0
   -0.2388   -2.5839   -1.1517 H   0  0  0  0  0  0  0  0  0  0  0  0
    0.8703   -0.9573    0.4085 H   0  0  0  0  0  0  0  0  0  0  0  0
    3.6228    1.8003    1.0697 H   0  0  0  0  0  0  0  0  0  0  0  0
    1.9787    2.4384    0.9129 H   0  0  0  0  0  0  0  0  0  0  0  0
    2.2464    0.8386    1.6345 H   0  0  0  0  0  0  0  0  0  0  0  0
   -1.9261    1.1540    1.7091 H   0  0  0  0  0  0  0  0  0  0  0  0
   -0.3036    0.5392    2.0461 H   0  0  0  0  0  0  0  0  0  0  0  0
   -0.5420    1.8123    0.8358 H   0  0  0  0  0  0  0  0  0  0  0  0
   -1.1843   -1.8733    1.5562 H   0  0  0  0  0  0  0  0  0  0  0  0
   -2.0967   -2.1675    0.0655 H   0  0  0  0  0  0  0  0  0  0  0  0
   -2.7631   -1.1150    1.3099 H   0  0  0  0  0  0  0  0  0  0  0  0
   -2.3131   -0.3571   -1.6926 H   0  0  0  0  0  0  0  0  0  0  0  0
   -1.6254    1.2530   -1.4232 H   0  0  0  0  0  0  0  0  0  0  0  0
   -3.0281    0.7169   -0.4932 H   0  0  0  0  0  0  0  0  0  0  0  0
  1  2  1  0
  2  3  1  0
  3  4  1  0
  4  5  1  0
  4  6  2  0
  4  7  1  6
  2  8  1  0
  8  9  1  0
  8 10  1  0
  8 11  1  0
  1 12  1  0
  1 13  1  0
  1 14  1  0
  2 15  1  1
  5 16  1  0
  5 17  1  0
  5 18  1  0
  9 19  1  0
  9 20  1  0
  9 21  1  0
 10 22  1  0
 10 23  1  0
 10 24  1  0
 11 25  1  0
 11 26  1  0
 11 27  1  0
M  END
$$$$
