GD_00_C1S_P3S
     RDKit          3D

 27 26  0  0  0  0  0  0  0  0999 V2000
    0.4227   -1.5980    1.3883 C   0  0  0  0  0  0  0  0  0  0  0  0
    0.3015   -0.5681    0.2648 C   0  0  2  0  0  0  0  0  0  0  0  0
    0.9884    0.6098    0.6878 O   0  0  0  0  0  0  0  0  0  0  0  0
    2.5275    0.8205    0.2368 P   0  0  2  0  0  5  0  0  0  0  0  0
    2.4141    1.5022   -1.4035 C   0  0  0  0  0  0  0  0  0  0  0  0
    3.3545   -0.4290    0.3184 O   0  0  0  0  0  0  0  0  0  0  0  0
    3.0375    1.8786    1.2796 F   0  0  0  0  0  0  0  0  0  0  0  0
   -1.1667   -0.1997   -0.1178 C   0  0  0  0  0  0  0  0  0  0  0  0
   -1.9344    0.4131    1.0693 C   0  0  0  0  0  0  0  0  0  0  0  0
   -1.9291   -1.4413   -0.6166 C   0  0  0  0  0  0  0  0  0  0  0  0
   -1.1516    0.8412   -1.2575 C   0  0  0  0  0  0  0  0  0  0  0  0
    0.0018   -1.2218    2.3259 H   0  0  0  0  0  0  0  0  0  0  0  0
    1.4756   -1.8124    1.5989 H   0  0  0  0  0  0  0  0  0  0  0  0
   -0.0615   -2.5440    1.1335 H   0  0  0  0  0  0  0  0  0  0  0  0
    0.8006   -0.9716   -0.6255 H   0  0  0  0  0  0  0  0  0  0  0  0
    1.7999    2.4065   -1.4023 H   0  0  0  0  0  0  0  0  0  0  0  0
    3.4094    1.7672   -1.7706 H   0  0  0  0  0  0  0  0  0  0  0  0
    1.9735    0.7827   -2.0983 H   0  0  0  0  0  0  0  0  0  0  0  0
   -2.9410    0.7245    0.7664 H   0  0  0  0  0  0  0  0  0  0  0  0
   -2.0536   -0.3042    1.8878 H   0  0  0  0  0  0  0  0  0  0  0  0
   -1.4236    1.2969    1.4663 H   0  0  0  0  0  0  0  0  0  0  0  0
   -2.0776   -2.1758    0.1814 H   0  0  0  0  0  0  0  0  0  0  0  0
   -1.3902   -1.9328   -1.4341 H   0  0  0  0  0  0  0  0  0  0  0  0
   -2.9232   -1.1701   -0.9908 H   0  0  0  0  0  0  0  0  0  0  0  0
   -0.6068    0.4627   -2.1294 H   0  0  0  0  0  0  0  0  0  0  0  0
   -0.6790    1.7777   -0.9428 H   0  0  0  0  0  0  0  0  0  0  0  0
   -2.1689    1.0852   -1.5851 H   0  0  0  0  0  0  0  0  0  0  0  0
  1  2  1  0
  2  3  1  0
  3  4  1  0
  4  5  1  0
  4  6  2  0
  4  7  1  1
  2  8  1  0
  8  9  1  0
  8 10  1  0
  8 11  1  0
  1 12  1  0
  1 13  1  0
  1 14  1  0
  2 15  1  6
  5 16  1  0
  5 17  1  0
  5 18  1  0
  9 19  1  0
  9 20  1  0
  9 21  1  0
 10 22  1  0
 10 23  1  0
 10 24  1  0
 11 25  1  0
 11 26  1  0
 11 27  1  0
M  END
$$$$
