METH_01_P2S
     RDKit          3D

 15 14  0  0  0  0  0  0  0  0999 V2000
   -2.1533    0.9007    0.1227 C   0  0  0  0  0  0  0  0  0  0  0  0
   -1.0001    0.4039   -0.5277 O   0  0  0  0  0  0  0  0  0  0  0  0
   -0.0463   -0.5769    0.3261 P   0  0  2  0  0  5  0  0  0  0  0  0
   -0.7944   -2.0332    0.2855 N   0  0  0  0  0  0  0  0  0  0  0  0
    0.2207   -0.0571    1.7051 O   0  0  0  0  0  0  0  0  0  0  0  0
    1.7388   -0.8261   -0.7066 S   0  0  0  0  0  0  0  0  0  0  0  0
    2.5069    0.7986   -0.5841 C   0  0  0  0  0  0  0  0  0  0  0  0
   -2.7558    0.0788    0.5186 H   0  0  0  0  0  0  0  0  0  0  0  0
   -2.7511    1.4580   -0.6029 H   0  0  0  0  0  0  0  0  0  0  0  0
   -1.8643    1.5752    0.9330 H   0  0  0  0  0  0  0  0  0  0  0  0
   -0.3018   -2.7058    0.8622 H   0  0  0  0  0  0  0  0  0  0  0  0
   -0.8027   -2.4196   -0.6511 H   0  0  0  0  0  0  0  0  0  0  0  0
    2.6915    1.0492    0.4634 H   0  0  0  0  0  0  0  0  0  0  0  0
    3.4589    0.7982   -1.1208 H   0  0  0  0  0  0  0  0  0  0  0  0
    1.8529    1.5561   -1.0232 H   0  0  0  0  0  0  0  0  0  0  0  0
  1  2  1  0
  3  2  1  6
  3  4  1  0
  3  5  2  0
  3  6  1  0
  6  7  1  0
  1  8  1  0
  1  9  1  0
  1 10  1  0
  4 11  1  0
  4 12  1  0
  7 13  1  0
  7 14  1  0
  7 15  1  0
M  END
$$$$
