MLT_01_C6R
     RDKit          3D

 38 37  0  0  0  0  0  0  0  0999 V2000
    2.2912   -0.3755    2.7977 C   0  0  0  0  0  0  0  0  0  0  0  0
    3.3294   -0.8114    1.7811 C   0  0  0  0  0  0  0  0  0  0  0  0
    2.7583   -0.8198    0.4638 O   0  0  0  0  0  0  0  0  0  0  0  0
    2.1256   -1.9694    0.1005 C   0  0  0  0  0  0  0  0  0  0  0  0
    2.0315   -2.9755    0.7876 O   0  0  0  0  0  0  0  0  0  0  0  0
    1.5491   -1.8298   -1.2861 C   0  0  0  0  0  0  0  0  0  0  0  0
    0.1692   -1.1839   -1.3036 C   0  0  1  0  0  0  0  0  0  0  0  0
   -1.1195   -2.3046   -0.6517 S   0  0  0  0  0  0  0  0  0  0  0  0
   -2.9005   -1.1823   -0.8041 P   0  0  0  0  0  0  0  0  0  0  0  0
   -4.5180   -2.1292   -1.3486 S   0  0  0  0  0  0  0  0  0  0  0  0
   -3.1016   -0.3434    0.5699 O   0  0  0  0  0  0  0  0  0  0  0  0
   -3.1564   -1.0419    1.7979 C   0  0  0  0  0  0  0  0  0  0  0  0
   -2.5404    0.0426   -1.8174 O   0  0  0  0  0  0  0  0  0  0  0  0
   -3.4770    1.0890   -1.9949 C   0  0  0  0  0  0  0  0  0  0  0  0
    0.1713    0.1491   -0.5689 C   0  0  0  0  0  0  0  0  0  0  0  0
   -0.2750    0.3489    0.5519 O   0  0  0  0  0  0  0  0  0  0  0  0
    0.7780    1.0955   -1.3429 O   0  0  0  0  0  0  0  0  0  0  0  0
    0.8569    2.3892   -0.7320 C   0  0  0  0  0  0  0  0  0  0  0  0
    1.5537    3.3261   -1.6988 C   0  0  0  0  0  0  0  0  0  0  0  0
    2.7271   -0.3238    3.7994 H   0  0  0  0  0  0  0  0  0  0  0  0
    1.8890    0.6091    2.5376 H   0  0  0  0  0  0  0  0  0  0  0  0
    1.4454   -1.0700    2.8189 H   0  0  0  0  0  0  0  0  0  0  0  0
    4.1552   -0.0926    1.7669 H   0  0  0  0  0  0  0  0  0  0  0  0
    3.7570   -1.7875    2.0371 H   0  0  0  0  0  0  0  0  0  0  0  0
    1.5381   -2.8201   -1.7576 H   0  0  0  0  0  0  0  0  0  0  0  0
    2.2546   -1.2347   -1.8810 H   0  0  0  0  0  0  0  0  0  0  0  0
   -0.1166   -0.9908   -2.3441 H   0  0  0  0  0  0  0  0  0  0  0  0
   -3.5950   -0.3837    2.5523 H   0  0  0  0  0  0  0  0  0  0  0  0
   -3.7733   -1.9403    1.7169 H   0  0  0  0  0  0  0  0  0  0  0  0
   -2.1472   -1.3133    2.1174 H   0  0  0  0  0  0  0  0  0  0  0  0
   -4.2816    0.7633   -2.6587 H   0  0  0  0  0  0  0  0  0  0  0  0
   -2.9639    1.9341   -2.4613 H   0  0  0  0  0  0  0  0  0  0  0  0
   -3.8909    1.4202   -1.0394 H   0  0  0  0  0  0  0  0  0  0  0  0
    1.4311    2.3240    0.1990 H   0  0  0  0  0  0  0  0  0  0  0  0
   -0.1524    2.7593   -0.5198 H   0  0  0  0  0  0  0  0  0  0  0  0
    1.0026    3.3851   -2.6432 H   0  0  0  0  0  0  0  0  0  0  0  0
    2.5566    2.9570   -1.9378 H   0  0  0  0  0  0  0  0  0  0  0  0
    1.6385    4.3310   -1.2758 H   0  0  0  0  0  0  0  0  0  0  0  0
  1  2  1  0
  2  3  1  0
  3  4  1  0
  4  5  2  0
  4  6  1  0
  6  7  1  0
  7  8  1  0
  8  9  1  0
  9 10  2  0
  9 11  1  0
 11 12  1  0
  9 13  1  0
 13 14  1  0
  7 15  1  0
 15 16  2  0
 15 17  1  0
 17 18  1  0
 18 19  1  0
  1 20  1  0
  1 21  1  0
  1 22  1  0
  2 23  1  0
  2 24  1  0
  6 25  1  0
  6 26  1  0
  7 27  1  6
 12 28  1  0
 12 29  1  0
 12 30  1  0
 14 31  1  0
 14 32  1  0
 14 33  1  0
 18 34  1  0
 18 35  1  0
 19 36  1  0
 19 37  1  0
 19 38  1  0
M  END
$$$$
