MPXN_00_achiral
     RDKit          3D

 26 26  0  0  0  0  0  0  0  0999 V2000
   -2.9019    2.2289   -0.5394 C   0  0  0  0  0  0  0  0  0  0  0  0
   -1.9556    1.1869   -0.6563 O   0  0  0  0  0  0  0  0  0  0  0  0
   -1.8387    0.1774    0.5958 P   0  0  0  0  0  0  0  0  0  0  0  0
   -1.6458    0.8408    1.9253 O   0  0  0  0  0  0  0  0  0  0  0  0
   -3.1931   -0.6921    0.4799 O   0  0  0  0  0  0  0  0  0  0  0  0
   -3.4107   -1.6542    1.4914 C   0  0  0  0  0  0  0  0  0  0  0  0
   -0.6947   -0.8636    0.1508 O   0  0  0  0  0  0  0  0  0  0  0  0
    0.6289   -0.5583    0.0099 C   0  0  0  0  0  0  0  0  0  0  0  0
    1.4402   -1.5869   -0.4772 C   0  0  0  0  0  0  0  0  0  0  0  0
    2.8102   -1.3824   -0.6591 C   0  0  0  0  0  0  0  0  0  0  0  0
    3.3650   -0.1356   -0.3469 C   0  0  0  0  0  0  0  0  0  0  0  0
    4.8036    0.0899   -0.5348 N   0  0  0  0  0  0  0  0  0  0  0  0
    5.4852   -0.8562   -0.9548 O   0  0  0  0  0  0  0  0  0  0  0  0
    5.2518    1.2128   -0.2631 O   0  0  0  0  0  0  0  0  0  0  0  0
    2.5567    0.8982    0.1441 C   0  0  0  0  0  0  0  0  0  0  0  0
    1.1857    0.6818    0.3219 C   0  0  0  0  0  0  0  0  0  0  0  0
   -2.6255    2.8966    0.2810 H   0  0  0  0  0  0  0  0  0  0  0  0
   -3.9007    1.8195   -0.3655 H   0  0  0  0  0  0  0  0  0  0  0  0
   -2.9118    2.8001   -1.4710 H   0  0  0  0  0  0  0  0  0  0  0  0
   -4.3207   -2.2115    1.2558 H   0  0  0  0  0  0  0  0  0  0  0  0
   -2.5709   -2.3527    1.5396 H   0  0  0  0  0  0  0  0  0  0  0  0
   -3.5395   -1.1598    2.4579 H   0  0  0  0  0  0  0  0  0  0  0  0
    1.0036   -2.5536   -0.7192 H   0  0  0  0  0  0  0  0  0  0  0  0
    3.4223   -2.1967   -1.0410 H   0  0  0  0  0  0  0  0  0  0  0  0
    2.9740    1.8719    0.3943 H   0  0  0  0  0  0  0  0  0  0  0  0
    0.5826    1.4987    0.7095 H   0  0  0  0  0  0  0  0  0  0  0  0
  1  2  1  0
  2  3  1  0
  3  4  2  0
  3  5  1  0
  5  6  1  0
  3  7  1  0
  7  8  1  0
  8  9  1  0
  9 10  2  0
 10 11  1  0
 11 12  1  0
 12 13  2  0
 12 14  1  0
 11 15  2  0
 15 16  1  0
 16  8  2  0
  1 17  1  0
  1 18  1  0
  1 19  1  0
  6 20  1  0
  6 21  1  0
  6 22  1  0
  9 23  1  0
 10 24  1  0
 15 25  1  0
 16 26  1  0
M  CHG  2  12   1  14  -1
M  END
$$$$
