VR_01_P8R
     RDKit          3D

 42 41  0  0  0  0  0  0  0  0999 V2000
   -5.0990   -0.7410    1.2978 C   0  0  0  0  0  0  0  0  0  0  0  0
   -4.6724   -0.1954   -0.0627 C   0  0  0  0  0  0  0  0  0  0  0  0
   -3.2091   -0.0419   -0.1661 N   0  0  0  0  0  0  0  0  0  0  0  0
   -2.7288    1.0914    0.6439 C   0  0  0  0  0  0  0  0  0  0  0  0
   -1.5894    0.6466    1.5517 C   0  0  0  0  0  0  0  0  0  0  0  0
   -2.8171    0.0740   -1.5917 C   0  0  0  0  0  0  0  0  0  0  0  0
   -1.3200   -0.1280   -1.8851 C   0  0  0  0  0  0  0  0  0  0  0  0
   -0.3641    1.4185   -1.9569 S   0  0  0  0  0  0  0  0  0  0  0  0
    1.5995    0.7253   -1.9431 P   0  0  2  0  0  5  0  0  0  0  0  0
    2.7060    2.1276   -2.0311 C   0  0  0  0  0  0  0  0  0  0  0  0
    1.8313   -0.2610   -3.0525 O   0  0  0  0  0  0  0  0  0  0  0  0
    1.9242    0.1005   -0.4866 O   0  0  0  0  0  0  0  0  0  0  0  0
    3.0274   -0.7862   -0.3784 C   0  0  0  0  0  0  0  0  0  0  0  0
    3.3295   -1.0432    1.1010 C   0  0  0  0  0  0  0  0  0  0  0  0
    4.4291   -2.0925    1.2468 C   0  0  0  0  0  0  0  0  0  0  0  0
    3.7269    0.2489    1.8183 C   0  0  0  0  0  0  0  0  0  0  0  0
   -4.5984   -1.6912    1.5127 H   0  0  0  0  0  0  0  0  0  0  0  0
   -4.8791   -0.0464    2.1135 H   0  0  0  0  0  0  0  0  0  0  0  0
   -6.1787   -0.9238    1.3030 H   0  0  0  0  0  0  0  0  0  0  0  0
   -5.1868    0.7503   -0.2748 H   0  0  0  0  0  0  0  0  0  0  0  0
   -5.0246   -0.9211   -0.8068 H   0  0  0  0  0  0  0  0  0  0  0  0
   -2.4207    1.9429    0.0283 H   0  0  0  0  0  0  0  0  0  0  0  0
   -3.5189    1.4953    1.2887 H   0  0  0  0  0  0  0  0  0  0  0  0
   -1.9185   -0.1437    2.2349 H   0  0  0  0  0  0  0  0  0  0  0  0
   -1.2440    1.4899    2.1587 H   0  0  0  0  0  0  0  0  0  0  0  0
   -0.7324    0.2708    0.9868 H   0  0  0  0  0  0  0  0  0  0  0  0
   -3.1981    1.0029   -2.0362 H   0  0  0  0  0  0  0  0  0  0  0  0
   -3.3177   -0.7426   -2.1303 H   0  0  0  0  0  0  0  0  0  0  0  0
   -1.2128   -0.6025   -2.8669 H   0  0  0  0  0  0  0  0  0  0  0  0
   -0.8677   -0.8094   -1.1570 H   0  0  0  0  0  0  0  0  0  0  0  0
    2.5358    2.8069   -1.1910 H   0  0  0  0  0  0  0  0  0  0  0  0
    3.7493    1.8021   -2.0034 H   0  0  0  0  0  0  0  0  0  0  0  0
    2.5463    2.6811   -2.9607 H   0  0  0  0  0  0  0  0  0  0  0  0
    2.7647   -1.7241   -0.8796 H   0  0  0  0  0  0  0  0  0  0  0  0
    3.8997   -0.3569   -0.8831 H   0  0  0  0  0  0  0  0  0  0  0  0
    2.4180   -1.4189    1.5833 H   0  0  0  0  0  0  0  0  0  0  0  0
    4.1345   -3.0330    0.7694 H   0  0  0  0  0  0  0  0  0  0  0  0
    5.3638   -1.7562    0.7853 H   0  0  0  0  0  0  0  0  0  0  0  0
    4.6291   -2.3026    2.3028 H   0  0  0  0  0  0  0  0  0  0  0  0
    2.9212    0.9890    1.7758 H   0  0  0  0  0  0  0  0  0  0  0  0
    3.9423    0.0551    2.8745 H   0  0  0  0  0  0  0  0  0  0  0  0
    4.6201    0.6942    1.3670 H   0  0  0  0  0  0  0  0  0  0  0  0
  1  2  1  0
  2  3  1  0
  3  4  1  0
  4  5  1  0
  3  6  1  0
  6  7  1  0
  7  8  1  0
  8  9  1  0
  9 10  1  0
  9 11  2  0
  9 12  1  1
 12 13  1  0
 13 14  1  0
 14 15  1  0
 14 16  1  0
  1 17  1  0
  1 18  1  0
  1 19  1  0
  2 20  1  0
  2 21  1  0
  4 22  1  0
  4 23  1  0
  5 24  1  0
  5 25  1  0
  5 26  1  0
  6 27  1  0
  6 28  1  0
  7 29  1  0
  7 30  1  0
 10 31  1  0
 10 32  1  0
 10 33  1  0
 13 34  1  0
 13 35  1  0
 14 36  1  0
 15 37  1  0
 15 38  1  0
 15 39  1  0
 16 40  1  0
 16 41  1  0
 16 42  1  0
M  END
$$$$
