VX_01_P3R
     RDKit          3D

 42 41  0  0  0  0  0  0  0  0999 V2000
    5.8385   -2.0936    1.5882 C   0  0  0  0  0  0  0  0  0  0  0  0
    5.1706   -1.2308    0.5379 C   0  0  0  0  0  0  0  0  0  0  0  0
    3.9688   -0.7068    1.0781 O   0  0  0  0  0  0  0  0  0  0  0  0
    3.1811    0.4094    0.2107 P   0  0  1  0  0  5  0  0  0  0  0  0
    3.9988    1.9286    0.6918 C   0  0  0  0  0  0  0  0  0  0  0  0
    3.2796    0.1680   -1.2696 O   0  0  0  0  0  0  0  0  0  0  0  0
    1.1977    0.5088    0.8343 S   0  0  0  0  0  0  0  0  0  0  0  0
    0.3545    1.2932   -0.5751 C   0  0  0  0  0  0  0  0  0  0  0  0
   -1.1508    1.5100   -0.3305 C   0  0  0  0  0  0  0  0  0  0  0  0
   -1.9339    0.2755   -0.1144 N   0  0  0  0  0  0  0  0  0  0  0  0
   -3.0414    0.4752    0.8401 C   0  0  0  0  0  0  0  0  0  0  0  0
   -3.7264   -0.8114    1.3084 C   0  0  0  0  0  0  0  0  0  0  0  0
   -4.0963    1.5172    0.4393 C   0  0  0  0  0  0  0  0  0  0  0  0
   -2.1123   -0.5177   -1.3441 C   0  0  0  0  0  0  0  0  0  0  0  0
   -3.3782   -0.2532   -2.1592 C   0  0  0  0  0  0  0  0  0  0  0  0
   -1.9402   -2.0177   -1.0759 C   0  0  0  0  0  0  0  0  0  0  0  0
    6.7698   -2.5219    1.2072 H   0  0  0  0  0  0  0  0  0  0  0  0
    6.0606   -1.5060    2.4852 H   0  0  0  0  0  0  0  0  0  0  0  0
    5.1752   -2.9082    1.8974 H   0  0  0  0  0  0  0  0  0  0  0  0
    5.8353   -0.4122    0.2455 H   0  0  0  0  0  0  0  0  0  0  0  0
    4.9348   -1.8304   -0.3467 H   0  0  0  0  0  0  0  0  0  0  0  0
    3.5241    2.7861    0.2067 H   0  0  0  0  0  0  0  0  0  0  0  0
    5.0521    1.9110    0.3993 H   0  0  0  0  0  0  0  0  0  0  0  0
    3.9444    2.0697    1.7750 H   0  0  0  0  0  0  0  0  0  0  0  0
    0.8285    2.2659   -0.7450 H   0  0  0  0  0  0  0  0  0  0  0  0
    0.5329    0.6902   -1.4693 H   0  0  0  0  0  0  0  0  0  0  0  0
   -1.2345    2.1743    0.5407 H   0  0  0  0  0  0  0  0  0  0  0  0
   -1.5720    2.0724   -1.1738 H   0  0  0  0  0  0  0  0  0  0  0  0
   -2.5695    0.8692    1.7522 H   0  0  0  0  0  0  0  0  0  0  0  0
   -4.3518   -1.2580    0.5311 H   0  0  0  0  0  0  0  0  0  0  0  0
   -4.3789   -0.6026    2.1643 H   0  0  0  0  0  0  0  0  0  0  0  0
   -2.9904   -1.5503    1.6426 H   0  0  0  0  0  0  0  0  0  0  0  0
   -4.7401    1.7447    1.2971 H   0  0  0  0  0  0  0  0  0  0  0  0
   -4.7494    1.1689   -0.3636 H   0  0  0  0  0  0  0  0  0  0  0  0
   -3.6425    2.4624    0.1263 H   0  0  0  0  0  0  0  0  0  0  0  0
   -1.2860   -0.2788   -2.0246 H   0  0  0  0  0  0  0  0  0  0  0  0
   -3.3211   -0.7737   -3.1224 H   0  0  0  0  0  0  0  0  0  0  0  0
   -4.2803   -0.6126   -1.6578 H   0  0  0  0  0  0  0  0  0  0  0  0
   -3.4919    0.8132   -2.3786 H   0  0  0  0  0  0  0  0  0  0  0  0
   -2.8013   -2.4623   -0.5725 H   0  0  0  0  0  0  0  0  0  0  0  0
   -1.8108   -2.5562   -2.0221 H   0  0  0  0  0  0  0  0  0  0  0  0
   -1.0473   -2.2099   -0.4707 H   0  0  0  0  0  0  0  0  0  0  0  0
  1  2  1  0
  2  3  1  0
  4  3  1  1
  4  5  1  0
  4  6  2  0
  4  7  1  0
  7  8  1  0
  8  9  1  0
  9 10  1  0
 10 11  1  0
 11 12  1  0
 11 13  1  0
 10 14  1  0
 14 15  1  0
 14 16  1  0
  1 17  1  0
  1 18  1  0
  1 19  1  0
  2 20  1  0
  2 21  1  0
  5 22  1  0
  5 23  1  0
  5 24  1  0
  8 25  1  0
  8 26  1  0
  9 27  1  0
  9 28  1  0
 11 29  1  0
 12 30  1  0
 12 31  1  0
 12 32  1  0
 13 33  1  0
 13 34  1  0
 13 35  1  0
 14 36  1  0
 15 37  1  0
 15 38  1  0
 15 39  1  0
 16 40  1  0
 16 41  1  0
 16 42  1  0
M  END
$$$$
