
     RDKit          3D

 18 17  0  0  0  0  0  0  0  0999 V2000
   -1.8485   -0.6883    0.7141 C   0  0  0  0  0  0  0  0  0  0  0  0
   -1.0218    0.0587   -0.3216 C   0  0  0  0  0  0  0  0  0  0  0  0
   -1.6299    1.4167   -0.6389 C   0  0  0  0  0  0  0  0  0  0  0  0
    0.2809    0.2750    0.2070 O   0  0  0  0  0  0  0  0  0  0  0  0
    1.4778   -0.6478   -0.3679 P   0  0  1  0  0  5  0  0  0  0  0  0
    2.8816   -0.1449    0.5993 C   0  0  0  0  0  0  0  0  0  0  0  0
    1.1725   -2.1154   -0.3038 O   0  0  0  0  0  0  0  0  0  0  0  0
    1.5735   -0.1773   -1.8637 F   0  0  0  0  0  0  0  0  0  0  0  0
   -1.3911   -1.6559    0.9458 H   0  0  0  0  0  0  0  0  0  0  0  0
   -1.8957   -0.1308    1.6561 H   0  0  0  0  0  0  0  0  0  0  0  0
   -2.8684   -0.8628    0.3580 H   0  0  0  0  0  0  0  0  0  0  0  0
   -0.9649   -0.5307   -1.2441 H   0  0  0  0  0  0  0  0  0  0  0  0
   -2.6403    1.3151   -1.0463 H   0  0  0  0  0  0  0  0  0  0  0  0
   -1.0109    1.9488   -1.3694 H   0  0  0  0  0  0  0  0  0  0  0  0
   -1.6729    2.0481    0.2555 H   0  0  0  0  0  0  0  0  0  0  0  0
    2.7286   -0.3817    1.6558 H   0  0  0  0  0  0  0  0  0  0  0  0
    3.0458    0.9322    0.5072 H   0  0  0  0  0  0  0  0  0  0  0  0
    3.7838   -0.6589    0.2570 H   0  0  0  0  0  0  0  0  0  0  0  0
  1  2  1  0
  2  3  1  0
  2  4  1  0
  4  5  1  0
  5  6  1  0
  5  7  2  0
  5  8  1  6
  1  9  1  0
  1 10  1  0
  1 11  1  0
  2 12  1  0
  3 13  1  0
  3 14  1  0
  3 15  1  0
  6 16  1  0
  6 17  1  0
  6 18  1  0
M  END
$$$$
