
     RDKit          3D

 29 29  0  0  0  0  0  0  0  0999 V2000
   -2.2803    3.8442   -0.1187 C   0  0  0  0  0  0  0  0  0  0  0  0
   -1.6587    2.7127   -0.9114 C   0  0  0  0  0  0  0  0  0  0  0  0
   -1.9567    1.4890   -0.2603 O   0  0  0  0  0  0  0  0  0  0  0  0
   -1.0232    0.1901   -0.5601 P   0  0  0  0  0  0  0  0  0  0  0  0
   -1.0321   -0.3345   -2.4330 S   0  0  0  0  0  0  0  0  0  0  0  0
   -1.6769   -0.8160    0.5248 O   0  0  0  0  0  0  0  0  0  0  0  0
   -1.2118   -2.1448    0.6585 C   0  0  0  0  0  0  0  0  0  0  0  0
   -2.3284   -2.9866    1.2439 C   0  0  0  0  0  0  0  0  0  0  0  0
    0.3485    0.6875    0.1249 O   0  0  0  0  0  0  0  0  0  0  0  0
    1.5412    0.0322    0.0036 C   0  0  0  0  0  0  0  0  0  0  0  0
    1.5105   -1.2793   -0.2952 N   0  0  0  0  0  0  0  0  0  0  0  0
    2.7071   -1.9083   -0.4034 C   0  0  0  0  0  0  0  0  0  0  0  0
    2.5429   -3.5784   -0.7775 Cl  0  0  0  0  0  0  0  0  0  0  0  0
    3.9363   -1.2837   -0.2157 C   0  0  0  0  0  0  0  0  0  0  0  0
    5.4448   -2.1019   -0.3501 Cl  0  0  0  0  0  0  0  0  0  0  0  0
    3.9354    0.0727    0.1036 C   0  0  0  0  0  0  0  0  0  0  0  0
    2.7198    0.7440    0.2190 C   0  0  0  0  0  0  0  0  0  0  0  0
    2.7171    2.4213    0.6068 Cl  0  0  0  0  0  0  0  0  0  0  0  0
   -1.8820    3.8638    0.9011 H   0  0  0  0  0  0  0  0  0  0  0  0
   -2.0817    4.8089   -0.5938 H   0  0  0  0  0  0  0  0  0  0  0  0
   -3.3636    3.7076   -0.0351 H   0  0  0  0  0  0  0  0  0  0  0  0
   -2.0775    2.6914   -1.9219 H   0  0  0  0  0  0  0  0  0  0  0  0
   -0.5760    2.8575   -0.9799 H   0  0  0  0  0  0  0  0  0  0  0  0
   -0.3553   -2.1530    1.3381 H   0  0  0  0  0  0  0  0  0  0  0  0
   -0.9128   -2.5571   -0.3085 H   0  0  0  0  0  0  0  0  0  0  0  0
   -2.6471   -2.5864    2.2121 H   0  0  0  0  0  0  0  0  0  0  0  0
   -3.2056   -2.9718    0.5887 H   0  0  0  0  0  0  0  0  0  0  0  0
   -2.0060   -4.0228    1.3790 H   0  0  0  0  0  0  0  0  0  0  0  0
    4.8719    0.6019    0.2608 H   0  0  0  0  0  0  0  0  0  0  0  0
  1  2  1  0
  2  3  1  0
  3  4  1  0
  4  5  2  0
  4  6  1  0
  6  7  1  0
  7  8  1  0
  4  9  1  0
  9 10  1  0
 10 11  1  0
 11 12  2  0
 12 13  1  0
 12 14  1  0
 14 15  1  0
 14 16  2  0
 16 17  1  0
 17 18  1  0
 17 10  2  0
  1 19  1  0
  1 20  1  0
  1 21  1  0
  2 22  1  0
  2 23  1  0
  7 24  1  0
  7 25  1  0
  8 26  1  0
  8 27  1  0
  8 28  1  0
 16 29  1  0
M  END
$$$$
