
     RDKit          3D

 21 20  0  0  0  0  0  0  0  0999 V2000
   -1.7233    1.4750    0.4537 C   0  0  0  0  0  0  0  0  0  0  0  0
   -2.0405    0.0409    0.0597 C   0  0  0  0  0  0  0  0  0  0  0  0
   -1.4309   -0.3709   -1.2839 C   0  0  0  0  0  0  0  0  0  0  0  0
    0.0938   -0.3609   -1.3116 C   0  0  0  0  0  0  0  0  0  0  0  0
    0.5944   -1.2391   -0.3173 O   0  0  0  0  0  0  0  0  0  0  0  0
    2.1757   -1.1634    0.0119 P   0  0  2  0  0  5  0  0  0  0  0  0
    2.3020    0.1637    1.1916 C   0  0  0  0  0  0  0  0  0  0  0  0
    3.0249   -0.9797   -1.2116 O   0  0  0  0  0  0  0  0  0  0  0  0
    2.4499   -2.5655    0.6639 F   0  0  0  0  0  0  0  0  0  0  0  0
   -0.6559    1.6102    0.6504 H   0  0  0  0  0  0  0  0  0  0  0  0
   -2.0225    2.1744   -0.3333 H   0  0  0  0  0  0  0  0  0  0  0  0
   -2.2643    1.7417    1.3673 H   0  0  0  0  0  0  0  0  0  0  0  0
   -1.7050   -0.6371    0.8528 H   0  0  0  0  0  0  0  0  0  0  0  0
   -3.1296   -0.0695   -0.0068 H   0  0  0  0  0  0  0  0  0  0  0  0
   -1.8119    0.2815   -2.0781 H   0  0  0  0  0  0  0  0  0  0  0  0
   -1.7780   -1.3877   -1.5064 H   0  0  0  0  0  0  0  0  0  0  0  0
    0.4821    0.6496   -1.1523 H   0  0  0  0  0  0  0  0  0  0  0  0
    0.4433   -0.7075   -2.2899 H   0  0  0  0  0  0  0  0  0  0  0  0
    1.6416   -0.0179    2.0440 H   0  0  0  0  0  0  0  0  0  0  0  0
    3.3271    0.2421    1.5635 H   0  0  0  0  0  0  0  0  0  0  0  0
    2.0271    1.1200    0.7391 H   0  0  0  0  0  0  0  0  0  0  0  0
  1  2  1  0
  2  3  1  0
  3  4  1  0
  4  5  1  0
  5  6  1  0
  6  7  1  0
  6  8  2  0
  6  9  1  1
  1 10  1  0
  1 11  1  0
  1 12  1  0
  2 13  1  0
  2 14  1  0
  3 15  1  0
  3 16  1  0
  4 17  1  0
  4 18  1  0
  7 19  1  0
  7 20  1  0
  7 21  1  0
M  END
$$$$
