
     RDKit          3D

 21 20  0  0  0  0  0  0  0  0999 V2000
   -3.1450    0.4775    0.2351 C   0  0  0  0  0  0  0  0  0  0  0  0
   -2.4354    0.0990   -1.0556 C   0  0  0  0  0  0  0  0  0  0  0  0
   -0.9560    0.4796   -1.0702 C   0  0  0  0  0  0  0  0  0  0  0  0
   -0.1210   -0.2744   -0.0427 C   0  0  0  0  0  0  0  0  0  0  0  0
    1.2403    0.0938   -0.2131 O   0  0  0  0  0  0  0  0  0  0  0  0
    2.3193   -0.7151    0.6803 P   0  0  1  0  0  5  0  0  0  0  0  0
    3.8534    0.1010    0.3066 C   0  0  0  0  0  0  0  0  0  0  0  0
    1.9693   -0.7440    2.1390 O   0  0  0  0  0  0  0  0  0  0  0  0
    2.2399   -2.1621    0.0741 F   0  0  0  0  0  0  0  0  0  0  0  0
   -2.7609   -0.0925    1.0860 H   0  0  0  0  0  0  0  0  0  0  0  0
   -4.2158    0.2656    0.1509 H   0  0  0  0  0  0  0  0  0  0  0  0
   -3.0269    1.5442    0.4504 H   0  0  0  0  0  0  0  0  0  0  0  0
   -2.5453   -0.9776   -1.2299 H   0  0  0  0  0  0  0  0  0  0  0  0
   -2.9337    0.6075   -1.8896 H   0  0  0  0  0  0  0  0  0  0  0  0
   -0.8415    1.5595   -0.9133 H   0  0  0  0  0  0  0  0  0  0  0  0
   -0.5480    0.2843   -2.0702 H   0  0  0  0  0  0  0  0  0  0  0  0
   -0.4272   -0.0174    0.9756 H   0  0  0  0  0  0  0  0  0  0  0  0
   -0.2234   -1.3556   -0.1835 H   0  0  0  0  0  0  0  0  0  0  0  0
    4.6844   -0.4019    0.8084 H   0  0  0  0  0  0  0  0  0  0  0  0
    4.0444    0.0860   -0.7699 H   0  0  0  0  0  0  0  0  0  0  0  0
    3.8287    1.1426    0.6383 H   0  0  0  0  0  0  0  0  0  0  0  0
  1  2  1  0
  2  3  1  0
  3  4  1  0
  4  5  1  0
  5  6  1  0
  6  7  1  0
  6  8  2  0
  6  9  1  6
  1 10  1  0
  1 11  1  0
  1 12  1  0
  2 13  1  0
  2 14  1  0
  3 15  1  0
  3 16  1  0
  4 17  1  0
  4 18  1  0
  7 19  1  0
  7 20  1  0
  7 21  1  0
M  END
$$$$
