
     RDKit          3D

 32 31  0  0  0  0  0  0  0  0999 V2000
    3.6788    0.3628    2.0357 C   0  0  0  0  0  0  0  0  0  0  0  0
    3.4747    0.5271    0.5440 C   0  0  0  0  0  0  0  0  0  0  0  0
    2.3899   -0.2902    0.1438 O   0  0  0  0  0  0  0  0  0  0  0  0
    1.8492   -0.0705   -1.3652 P   0  0  2  0  0  5  0  0  0  0  0  0
    2.9676    0.0022   -2.3640 O   0  0  0  0  0  0  0  0  0  0  0  0
    1.1858    1.3534   -1.2576 F   0  0  0  0  0  0  0  0  0  0  0  0
    0.6684   -1.0979   -1.6392 N   0  0  0  0  0  0  0  0  0  0  0  0
   -0.5342   -1.0827   -1.1854 C   0  0  0  0  0  0  0  0  0  0  0  0
   -1.4424   -2.1862   -1.6911 C   0  0  0  0  0  0  0  0  0  0  0  0
   -1.1172   -0.1743   -0.3211 N   0  0  0  0  0  0  0  0  0  0  0  0
   -0.5764   -0.0235    1.0343 C   0  0  0  0  0  0  0  0  0  0  0  0
   -1.6945    0.0432    2.0628 C   0  0  0  0  0  0  0  0  0  0  0  0
   -1.7599    1.0149   -0.8992 C   0  0  0  0  0  0  0  0  0  0  0  0
   -3.2499    0.7778   -1.0852 C   0  0  0  0  0  0  0  0  0  0  0  0
    2.7735    0.6483    2.5820 H   0  0  0  0  0  0  0  0  0  0  0  0
    3.8835   -0.6838    2.2842 H   0  0  0  0  0  0  0  0  0  0  0  0
    4.5118    0.9785    2.3862 H   0  0  0  0  0  0  0  0  0  0  0  0
    4.3760    0.2208    0.0041 H   0  0  0  0  0  0  0  0  0  0  0  0
    3.2564    1.5738    0.3084 H   0  0  0  0  0  0  0  0  0  0  0  0
   -0.8789   -3.1184   -1.7926 H   0  0  0  0  0  0  0  0  0  0  0  0
   -2.2734   -2.3487   -0.9991 H   0  0  0  0  0  0  0  0  0  0  0  0
   -1.8384   -1.9014   -2.6700 H   0  0  0  0  0  0  0  0  0  0  0  0
    0.0524    0.8714    1.1006 H   0  0  0  0  0  0  0  0  0  0  0  0
    0.0531   -0.8864    1.2819 H   0  0  0  0  0  0  0  0  0  0  0  0
   -1.2766    0.0751    3.0739 H   0  0  0  0  0  0  0  0  0  0  0  0
   -2.3118    0.9367    1.9279 H   0  0  0  0  0  0  0  0  0  0  0  0
   -2.3480   -0.8324    1.9892 H   0  0  0  0  0  0  0  0  0  0  0  0
   -1.6108    1.8911   -0.2574 H   0  0  0  0  0  0  0  0  0  0  0  0
   -1.3069    1.2590   -1.8678 H   0  0  0  0  0  0  0  0  0  0  0  0
   -3.7338    0.5205   -0.1379 H   0  0  0  0  0  0  0  0  0  0  0  0
   -3.4379   -0.0389   -1.7889 H   0  0  0  0  0  0  0  0  0  0  0  0
   -3.7298    1.6788   -1.4799 H   0  0  0  0  0  0  0  0  0  0  0  0
  1  2  1  0
  2  3  1  0
  3  4  1  0
  4  5  2  0
  4  6  1  1
  4  7  1  0
  7  8  2  0
  8  9  1  0
  8 10  1  0
 10 11  1  0
 11 12  1  0
 10 13  1  0
 13 14  1  0
  1 15  1  0
  1 16  1  0
  1 17  1  0
  2 18  1  0
  2 19  1  0
  9 20  1  0
  9 21  1  0
  9 22  1  0
 11 23  1  0
 11 24  1  0
 12 25  1  0
 12 26  1  0
 12 27  1  0
 13 28  1  0
 13 29  1  0
 14 30  1  0
 14 31  1  0
 14 32  1  0
M  END
$$$$
