
     RDKit          3D

 32 31  0  0  0  0  0  0  0  0999 V2000
    3.9897    2.3525    0.4831 C   0  0  0  0  0  0  0  0  0  0  0  0
    3.1729    1.7586   -0.6457 C   0  0  0  0  0  0  0  0  0  0  0  0
    2.3908    0.6971   -0.1296 O   0  0  0  0  0  0  0  0  0  0  0  0
    1.5283   -0.1443   -1.2109 P   0  0  1  0  0  5  0  0  0  0  0  0
    0.7183    0.7397   -2.1153 O   0  0  0  0  0  0  0  0  0  0  0  0
    2.6773   -0.8079   -2.0602 F   0  0  0  0  0  0  0  0  0  0  0  0
    0.8482   -1.3668   -0.4553 N   0  0  0  0  0  0  0  0  0  0  0  0
   -0.3516   -1.4351    0.0058 C   0  0  0  0  0  0  0  0  0  0  0  0
   -0.7419   -2.7898    0.5738 C   0  0  0  0  0  0  0  0  0  0  0  0
   -1.3070   -0.4313    0.0091 N   0  0  0  0  0  0  0  0  0  0  0  0
   -2.7154   -0.7171   -0.2929 C   0  0  0  0  0  0  0  0  0  0  0  0
   -2.8798   -1.0642   -1.7650 C   0  0  0  0  0  0  0  0  0  0  0  0
   -1.0654    0.8143    0.7471 C   0  0  0  0  0  0  0  0  0  0  0  0
   -1.3840    0.6417    2.2249 C   0  0  0  0  0  0  0  0  0  0  0  0
    4.6403    1.5930    0.9293 H   0  0  0  0  0  0  0  0  0  0  0  0
    4.6078    3.1802    0.1243 H   0  0  0  0  0  0  0  0  0  0  0  0
    3.3355    2.7196    1.2808 H   0  0  0  0  0  0  0  0  0  0  0  0
    3.8351    1.3804   -1.4309 H   0  0  0  0  0  0  0  0  0  0  0  0
    2.5141    2.5213   -1.0725 H   0  0  0  0  0  0  0  0  0  0  0  0
    0.1505   -3.3746    0.8165 H   0  0  0  0  0  0  0  0  0  0  0  0
   -1.3296   -2.6593    1.4868 H   0  0  0  0  0  0  0  0  0  0  0  0
   -1.3313   -3.3399   -0.1645 H   0  0  0  0  0  0  0  0  0  0  0  0
   -3.3432    0.1564   -0.0789 H   0  0  0  0  0  0  0  0  0  0  0  0
   -3.0941   -1.5293    0.3367 H   0  0  0  0  0  0  0  0  0  0  0  0
   -3.9346   -1.2410   -1.9973 H   0  0  0  0  0  0  0  0  0  0  0  0
   -2.5214   -0.2476   -2.4006 H   0  0  0  0  0  0  0  0  0  0  0  0
   -2.3190   -1.9656   -2.0314 H   0  0  0  0  0  0  0  0  0  0  0  0
   -0.0258    1.1343    0.6482 H   0  0  0  0  0  0  0  0  0  0  0  0
   -1.6732    1.6240    0.3264 H   0  0  0  0  0  0  0  0  0  0  0  0
   -0.7595   -0.1374    2.6745 H   0  0  0  0  0  0  0  0  0  0  0  0
   -2.4312    0.3616    2.3776 H   0  0  0  0  0  0  0  0  0  0  0  0
   -1.2009    1.5768    2.7633 H   0  0  0  0  0  0  0  0  0  0  0  0
  1  2  1  0
  2  3  1  0
  3  4  1  0
  4  5  2  0
  4  6  1  6
  4  7  1  0
  7  8  2  0
  8  9  1  0
  8 10  1  0
 10 11  1  0
 11 12  1  0
 10 13  1  0
 13 14  1  0
  1 15  1  0
  1 16  1  0
  1 17  1  0
  2 18  1  0
  2 19  1  0
  9 20  1  0
  9 21  1  0
  9 22  1  0
 11 23  1  0
 11 24  1  0
 12 25  1  0
 12 26  1  0
 12 27  1  0
 13 28  1  0
 13 29  1  0
 14 30  1  0
 14 31  1  0
 14 32  1  0
M  END
$$$$
