
     RDKit          3D

 32 32  0  0  0  0  0  0  0  0999 V2000
   -1.7996   -3.3062    1.1751 C   0  0  0  0  0  0  0  0  0  0  0  0
   -1.8383   -1.8637    1.6346 C   0  0  0  0  0  0  0  0  0  0  0  0
   -1.7662   -1.0237    0.4961 O   0  0  0  0  0  0  0  0  0  0  0  0
   -1.5556    0.5509    0.7750 P   0  0  0  0  0  0  0  0  0  0  0  0
   -2.4951    1.1252    1.7910 O   0  0  0  0  0  0  0  0  0  0  0  0
   -1.6814    1.2080   -0.6922 O   0  0  0  0  0  0  0  0  0  0  0  0
   -1.6336    2.6215   -0.7794 C   0  0  0  0  0  0  0  0  0  0  0  0
   -3.0325    3.1589   -1.0001 C   0  0  0  0  0  0  0  0  0  0  0  0
    0.0028    0.6950    1.1550 O   0  0  0  0  0  0  0  0  0  0  0  0
    1.0757    0.2613    0.4303 C   0  0  0  0  0  0  0  0  0  0  0  0
    0.9939   -0.3960   -0.7964 C   0  0  0  0  0  0  0  0  0  0  0  0
    2.1605   -0.8001   -1.4556 C   0  0  0  0  0  0  0  0  0  0  0  0
    3.4101   -0.5413   -0.8780 C   0  0  0  0  0  0  0  0  0  0  0  0
    4.6350   -0.9646   -1.5681 N   0  0  0  0  0  0  0  0  0  0  0  0
    4.5123   -1.5455   -2.6557 O   0  0  0  0  0  0  0  0  0  0  0  0
    5.7192   -0.7159   -1.0218 O   0  0  0  0  0  0  0  0  0  0  0  0
    3.4981    0.1185    0.3532 C   0  0  0  0  0  0  0  0  0  0  0  0
    2.3262    0.5167    1.0013 C   0  0  0  0  0  0  0  0  0  0  0  0
   -1.8569   -3.9892    2.0272 H   0  0  0  0  0  0  0  0  0  0  0  0
   -0.8772   -3.5090    0.6207 H   0  0  0  0  0  0  0  0  0  0  0  0
   -2.6321   -3.5174    0.4959 H   0  0  0  0  0  0  0  0  0  0  0  0
   -0.9943   -1.6595    2.3013 H   0  0  0  0  0  0  0  0  0  0  0  0
   -2.7707   -1.6624    2.1709 H   0  0  0  0  0  0  0  0  0  0  0  0
   -1.1888    3.0560    0.1222 H   0  0  0  0  0  0  0  0  0  0  0  0
   -0.9932    2.8839   -1.6271 H   0  0  0  0  0  0  0  0  0  0  0  0
   -3.6883    2.8901   -0.1658 H   0  0  0  0  0  0  0  0  0  0  0  0
   -3.4738    2.7255   -1.9037 H   0  0  0  0  0  0  0  0  0  0  0  0
   -3.0202    4.2477   -1.1009 H   0  0  0  0  0  0  0  0  0  0  0  0
    0.0393   -0.6108   -1.2692 H   0  0  0  0  0  0  0  0  0  0  0  0
    2.0751   -1.3122   -2.4124 H   0  0  0  0  0  0  0  0  0  0  0  0
    4.4594    0.3284    0.8177 H   0  0  0  0  0  0  0  0  0  0  0  0
    2.3902    1.0297    1.9591 H   0  0  0  0  0  0  0  0  0  0  0  0
  1  2  1  0
  2  3  1  0
  3  4  1  0
  4  5  2  0
  4  6  1  0
  6  7  1  0
  7  8  1  0
  4  9  1  0
  9 10  1  0
 10 11  1  0
 11 12  2  0
 12 13  1  0
 13 14  1  0
 14 15  2  0
 14 16  1  0
 13 17  2  0
 17 18  1  0
 18 10  2  0
  1 19  1  0
  1 20  1  0
  1 21  1  0
  2 22  1  0
  2 23  1  0
  7 24  1  0
  7 25  1  0
  8 26  1  0
  8 27  1  0
  8 28  1  0
 11 29  1  0
 12 30  1  0
 17 31  1  0
 18 32  1  0
M  CHG  2  14   1  16  -1
M  END
$$$$
