
     RDKit          3D

 32 32  0  0  0  0  0  0  0  0999 V2000
   -1.1399   -3.6446    0.5069 C   0  0  0  0  0  0  0  0  0  0  0  0
   -1.4213   -2.5163    1.4777 C   0  0  0  0  0  0  0  0  0  0  0  0
   -1.8238   -1.3750    0.7382 O   0  0  0  0  0  0  0  0  0  0  0  0
   -1.7072    0.0810    1.4385 P   0  0  0  0  0  0  0  0  0  0  0  0
   -2.6953    0.3039    3.0916 S   0  0  0  0  0  0  0  0  0  0  0  0
   -2.1471    1.0509    0.2179 O   0  0  0  0  0  0  0  0  0  0  0  0
   -2.0837    2.4544    0.4116 C   0  0  0  0  0  0  0  0  0  0  0  0
   -2.0422    3.1265   -0.9453 C   0  0  0  0  0  0  0  0  0  0  0  0
   -0.1118    0.3164    1.5446 O   0  0  0  0  0  0  0  0  0  0  0  0
    0.8202    0.2272    0.5499 C   0  0  0  0  0  0  0  0  0  0  0  0
    0.5432   -0.0944   -0.7778 C   0  0  0  0  0  0  0  0  0  0  0  0
    1.5795   -0.1576   -1.7163 C   0  0  0  0  0  0  0  0  0  0  0  0
    2.8962    0.1036   -1.3164 C   0  0  0  0  0  0  0  0  0  0  0  0
    3.9846    0.0378   -2.2998 N   0  0  0  0  0  0  0  0  0  0  0  0
    3.6889   -0.2521   -3.4677 O   0  0  0  0  0  0  0  0  0  0  0  0
    5.1341    0.2760   -1.9033 O   0  0  0  0  0  0  0  0  0  0  0  0
    3.1803    0.4271    0.0151 C   0  0  0  0  0  0  0  0  0  0  0  0
    2.1370    0.4869    0.9425 C   0  0  0  0  0  0  0  0  0  0  0  0
   -0.8359   -4.5505    1.0387 H   0  0  0  0  0  0  0  0  0  0  0  0
   -0.3457   -3.3624   -0.1922 H   0  0  0  0  0  0  0  0  0  0  0  0
   -2.0280   -3.8681   -0.0934 H   0  0  0  0  0  0  0  0  0  0  0  0
   -0.5232   -2.2952    2.0629 H   0  0  0  0  0  0  0  0  0  0  0  0
   -2.2275   -2.8020    2.1599 H   0  0  0  0  0  0  0  0  0  0  0  0
   -2.9712    2.7790    0.9630 H   0  0  0  0  0  0  0  0  0  0  0  0
   -1.1916    2.7209    0.9871 H   0  0  0  0  0  0  0  0  0  0  0  0
   -2.0040    4.2144   -0.8411 H   0  0  0  0  0  0  0  0  0  0  0  0
   -2.9244    2.8586   -1.5361 H   0  0  0  0  0  0  0  0  0  0  0  0
   -1.1663    2.7952   -1.5129 H   0  0  0  0  0  0  0  0  0  0  0  0
   -0.4671   -0.3024   -1.1197 H   0  0  0  0  0  0  0  0  0  0  0  0
    1.3419   -0.4106   -2.7482 H   0  0  0  0  0  0  0  0  0  0  0  0
    4.1966    0.6333    0.3450 H   0  0  0  0  0  0  0  0  0  0  0  0
    2.3549    0.7382    1.9789 H   0  0  0  0  0  0  0  0  0  0  0  0
  1  2  1  0
  2  3  1  0
  3  4  1  0
  4  5  2  0
  4  6  1  0
  6  7  1  0
  7  8  1  0
  4  9  1  0
  9 10  1  0
 10 11  1  0
 11 12  2  0
 12 13  1  0
 13 14  1  0
 14 15  2  0
 14 16  1  0
 13 17  2  0
 17 18  1  0
 18 10  2  0
  1 19  1  0
  1 20  1  0
  1 21  1  0
  2 22  1  0
  2 23  1  0
  7 24  1  0
  7 25  1  0
  8 26  1  0
  8 27  1  0
  8 28  1  0
 11 29  1  0
 12 30  1  0
 17 31  1  0
 18 32  1  0
M  CHG  2  14   1  16  -1
M  END
$$$$
