
     RDKit          3D

 38 37  0  0  0  0  0  0  0  0999 V2000
    5.0015   -2.7803    0.3454 C   0  0  0  0  0  0  0  0  0  0  0  0
    4.0403   -2.1085    1.3064 C   0  0  0  0  0  0  0  0  0  0  0  0
    2.7605   -2.0180    0.6688 O   0  0  0  0  0  0  0  0  0  0  0  0
    1.8009   -1.4103    1.4201 C   0  0  0  0  0  0  0  0  0  0  0  0
    1.9596   -0.9881    2.5566 O   0  0  0  0  0  0  0  0  0  0  0  0
    0.4997   -1.3764    0.6537 C   0  0  0  0  0  0  0  0  0  0  0  0
   -0.4449   -0.3203    1.2328 C   0  0  2  0  0  0  0  0  0  0  0  0
   -2.1872   -0.8129    0.9168 S   0  0  0  0  0  0  0  0  0  0  0  0
   -2.7330   -0.1195   -1.0055 P   0  0  0  0  0  0  0  0  0  0  0  0
   -1.4063   -0.1985   -2.4378 S   0  0  0  0  0  0  0  0  0  0  0  0
   -4.0431   -0.9884   -1.4400 O   0  0  0  0  0  0  0  0  0  0  0  0
   -5.1461   -1.0866   -0.5607 C   0  0  0  0  0  0  0  0  0  0  0  0
   -3.4343    1.3328   -0.8171 O   0  0  0  0  0  0  0  0  0  0  0  0
   -3.9237    2.0248   -1.9481 C   0  0  0  0  0  0  0  0  0  0  0  0
   -0.1618    1.0883    0.7128 C   0  0  0  0  0  0  0  0  0  0  0  0
   -1.0135    1.9443    0.5148 O   0  0  0  0  0  0  0  0  0  0  0  0
    1.1761    1.2922    0.5585 O   0  0  0  0  0  0  0  0  0  0  0  0
    1.5785    2.6085    0.1488 C   0  0  0  0  0  0  0  0  0  0  0  0
    1.5325    2.7295   -1.3622 C   0  0  0  0  0  0  0  0  0  0  0  0
    4.6409   -3.7780    0.0740 H   0  0  0  0  0  0  0  0  0  0  0  0
    5.0809   -2.2068   -0.5841 H   0  0  0  0  0  0  0  0  0  0  0  0
    5.9965   -2.8729    0.7895 H   0  0  0  0  0  0  0  0  0  0  0  0
    4.4036   -1.1041    1.5514 H   0  0  0  0  0  0  0  0  0  0  0  0
    3.9549   -2.7044    2.2219 H   0  0  0  0  0  0  0  0  0  0  0  0
    0.0792   -2.3862    0.7311 H   0  0  0  0  0  0  0  0  0  0  0  0
    0.7265   -1.1681   -0.3968 H   0  0  0  0  0  0  0  0  0  0  0  0
   -0.3569   -0.2697    2.3235 H   0  0  0  0  0  0  0  0  0  0  0  0
   -5.3038   -0.1603   -0.0027 H   0  0  0  0  0  0  0  0  0  0  0  0
   -6.0423   -1.2928   -1.1517 H   0  0  0  0  0  0  0  0  0  0  0  0
   -4.9900   -1.9160    0.1335 H   0  0  0  0  0  0  0  0  0  0  0  0
   -3.1006    2.5286   -2.4611 H   0  0  0  0  0  0  0  0  0  0  0  0
   -4.6365    2.7812   -1.6097 H   0  0  0  0  0  0  0  0  0  0  0  0
   -4.4364    1.3470   -2.6359 H   0  0  0  0  0  0  0  0  0  0  0  0
    0.9681    3.3792    0.6331 H   0  0  0  0  0  0  0  0  0  0  0  0
    2.6072    2.7477    0.4968 H   0  0  0  0  0  0  0  0  0  0  0  0
    1.9262    3.6973   -1.6853 H   0  0  0  0  0  0  0  0  0  0  0  0
    0.5074    2.6326   -1.7320 H   0  0  0  0  0  0  0  0  0  0  0  0
    2.1195    1.9332   -1.8314 H   0  0  0  0  0  0  0  0  0  0  0  0
  1  2  1  0
  2  3  1  0
  3  4  1  0
  4  5  2  0
  4  6  1  0
  6  7  1  0
  7  8  1  0
  8  9  1  0
  9 10  2  0
  9 11  1  0
 11 12  1  0
  9 13  1  0
 13 14  1  0
  7 15  1  0
 15 16  2  0
 15 17  1  0
 17 18  1  0
 18 19  1  0
  1 20  1  0
  1 21  1  0
  1 22  1  0
  2 23  1  0
  2 24  1  0
  6 25  1  0
  6 26  1  0
  7 27  1  1
 12 28  1  0
 12 29  1  0
 12 30  1  0
 14 31  1  0
 14 32  1  0
 14 33  1  0
 18 34  1  0
 18 35  1  0
 19 36  1  0
 19 37  1  0
 19 38  1  0
M  END
$$$$
