
     RDKit          3D

 27 26  0  0  0  0  0  0  0  0999 V2000
    3.3793    0.9859    1.5922 C   0  0  0  0  0  0  0  0  0  0  0  0
    2.7234    0.1642    0.5023 C   0  0  0  0  0  0  0  0  0  0  0  0
    1.7256    0.9543   -0.1232 O   0  0  0  0  0  0  0  0  0  0  0  0
    0.7443    0.1928   -1.1586 P   0  0  2  0  0  5  0  0  0  0  0  0
    1.4972   -0.6662   -2.1341 O   0  0  0  0  0  0  0  0  0  0  0  0
    0.0638    1.5509   -2.1944 C   0  0  0  0  0  0  0  0  0  0  0  0
   -0.4069    2.4100   -2.8250 N   0  0  0  0  0  0  0  0  0  0  0  0
   -0.4595   -0.5322   -0.2893 N   0  0  0  0  0  0  0  0  0  0  0  0
   -1.0140    0.1495    0.8818 C   0  0  0  0  0  0  0  0  0  0  0  0
   -2.0235    1.2497    0.5828 C   0  0  0  0  0  0  0  0  0  0  0  0
   -1.4433   -1.2893   -1.0717 C   0  0  0  0  0  0  0  0  0  0  0  0
   -2.2404   -2.3167   -0.2763 C   0  0  0  0  0  0  0  0  0  0  0  0
    2.6384    1.3041    2.3331 H   0  0  0  0  0  0  0  0  0  0  0  0
    3.8235    1.8958    1.1752 H   0  0  0  0  0  0  0  0  0  0  0  0
    4.1603    0.4114    2.0980 H   0  0  0  0  0  0  0  0  0  0  0  0
    3.4661   -0.1336   -0.2443 H   0  0  0  0  0  0  0  0  0  0  0  0
    2.2700   -0.7353    0.9309 H   0  0  0  0  0  0  0  0  0  0  0  0
   -1.4686   -0.5798    1.5615 H   0  0  0  0  0  0  0  0  0  0  0  0
   -0.1957    0.5839    1.4671 H   0  0  0  0  0  0  0  0  0  0  0  0
   -2.8955    0.8705    0.0421 H   0  0  0  0  0  0  0  0  0  0  0  0
   -1.5758    2.0595    0.0014 H   0  0  0  0  0  0  0  0  0  0  0  0
   -2.3841    1.6839    1.5215 H   0  0  0  0  0  0  0  0  0  0  0  0
   -2.1269   -0.6106   -1.5940 H   0  0  0  0  0  0  0  0  0  0  0  0
   -0.9102   -1.8433   -1.8539 H   0  0  0  0  0  0  0  0  0  0  0  0
   -2.9425   -1.8421    0.4157 H   0  0  0  0  0  0  0  0  0  0  0  0
   -1.5776   -2.9766    0.2931 H   0  0  0  0  0  0  0  0  0  0  0  0
   -2.8275   -2.9408   -0.9585 H   0  0  0  0  0  0  0  0  0  0  0  0
  1  2  1  0
  2  3  1  0
  3  4  1  0
  4  5  2  0
  4  6  1  6
  6  7  3  0
  4  8  1  0
  8  9  1  0
  9 10  1  0
  8 11  1  0
 11 12  1  0
  1 13  1  0
  1 14  1  0
  1 15  1  0
  2 16  1  0
  2 17  1  0
  9 18  1  0
  9 19  1  0
 10 20  1  0
 10 21  1  0
 10 22  1  0
 11 23  1  0
 11 24  1  0
 12 25  1  0
 12 26  1  0
 12 27  1  0
M  END
$$$$
