
     RDKit          3D

 21 20  0  0  0  0  0  0  0  0999 V2000
    3.3075    0.8068   -0.3563 C   0  0  0  0  0  0  0  0  0  0  0  0
    2.2347    0.0345    0.3832 C   0  0  0  0  0  0  0  0  0  0  0  0
    0.9967    0.2306   -0.2805 O   0  0  0  0  0  0  0  0  0  0  0  0
   -0.2746   -0.6203    0.2457 P   0  0  2  0  0  5  0  0  0  0  0  0
   -0.2971   -0.7835    1.7381 O   0  0  0  0  0  0  0  0  0  0  0  0
    0.0257   -2.3144   -0.4080 C   0  0  0  0  0  0  0  0  0  0  0  0
    0.2163   -3.3807   -0.8368 N   0  0  0  0  0  0  0  0  0  0  0  0
   -1.6205    0.0259   -0.4634 N   0  0  0  0  0  0  0  0  0  0  0  0
   -1.8283    1.4513   -0.2226 C   0  0  0  0  0  0  0  0  0  0  0  0
   -2.8718   -0.6887   -0.2216 C   0  0  0  0  0  0  0  0  0  0  0  0
    3.3841    0.4633   -1.3932 H   0  0  0  0  0  0  0  0  0  0  0  0
    4.2803    0.6856    0.1285 H   0  0  0  0  0  0  0  0  0  0  0  0
    3.0605    1.8730   -0.3915 H   0  0  0  0  0  0  0  0  0  0  0  0
    2.1531    0.3980    1.4123 H   0  0  0  0  0  0  0  0  0  0  0  0
    2.4840   -1.0308    0.4008 H   0  0  0  0  0  0  0  0  0  0  0  0
   -2.6593    1.8397   -0.8216 H   0  0  0  0  0  0  0  0  0  0  0  0
   -0.9403    2.0219   -0.5132 H   0  0  0  0  0  0  0  0  0  0  0  0
   -2.0300    1.6537    0.8348 H   0  0  0  0  0  0  0  0  0  0  0  0
   -2.7731   -1.7417   -0.5033 H   0  0  0  0  0  0  0  0  0  0  0  0
   -3.6873   -0.2783   -0.8272 H   0  0  0  0  0  0  0  0  0  0  0  0
   -3.1605   -0.6460    0.8342 H   0  0  0  0  0  0  0  0  0  0  0  0
  1  2  1  0
  2  3  1  0
  3  4  1  0
  4  5  2  0
  4  6  1  6
  6  7  3  0
  4  8  1  0
  8  9  1  0
  8 10  1  0
  1 11  1  0
  1 12  1  0
  1 13  1  0
  2 14  1  0
  2 15  1  0
  9 16  1  0
  9 17  1  0
  9 18  1  0
 10 19  1  0
 10 20  1  0
 10 21  1  0
M  END
$$$$
