
     RDKit          3D

 25 24  0  0  0  0  0  0  0  0999 V2000
   -3.3312   -1.3520   -0.5149 C   0  0  0  0  0  0  0  0  0  0  0  0
   -2.5175   -0.0673   -0.4675 C   0  0  0  0  0  0  0  0  0  0  0  0
   -3.2354    1.0110    0.3304 C   0  0  0  0  0  0  0  0  0  0  0  0
   -1.2802   -0.3561    0.1662 O   0  0  0  0  0  0  0  0  0  0  0  0
    0.0461    0.2739   -0.4911 P   0  0  0  0  0  0  0  0  0  0  0  0
    0.0290    1.7536   -0.7112 O   0  0  0  0  0  0  0  0  0  0  0  0
    0.2118   -0.5167   -1.8356 F   0  0  0  0  0  0  0  0  0  0  0  0
    1.2356   -0.2869    0.4355 O   0  0  0  0  0  0  0  0  0  0  0  0
    2.5614    0.0725    0.0762 C   0  0  0  0  0  0  0  0  0  0  0  0
    3.0346    1.1836    1.0016 C   0  0  0  0  0  0  0  0  0  0  0  0
    3.4354   -1.1657    0.2094 C   0  0  0  0  0  0  0  0  0  0  0  0
   -3.4955   -1.7520    0.4918 H   0  0  0  0  0  0  0  0  0  0  0  0
   -4.3028   -1.1906   -0.9916 H   0  0  0  0  0  0  0  0  0  0  0  0
   -2.7915   -2.1233   -1.0751 H   0  0  0  0  0  0  0  0  0  0  0  0
   -2.3459    0.2834   -1.4919 H   0  0  0  0  0  0  0  0  0  0  0  0
   -4.2063    1.2530   -0.1124 H   0  0  0  0  0  0  0  0  0  0  0  0
   -2.6340    1.9252    0.3694 H   0  0  0  0  0  0  0  0  0  0  0  0
   -3.3912    0.6943    1.3677 H   0  0  0  0  0  0  0  0  0  0  0  0
    2.5916    0.4192   -0.9634 H   0  0  0  0  0  0  0  0  0  0  0  0
    2.3897    2.0635    0.9071 H   0  0  0  0  0  0  0  0  0  0  0  0
    4.0625    1.4806    0.7727 H   0  0  0  0  0  0  0  0  0  0  0  0
    2.9845    0.8698    2.0501 H   0  0  0  0  0  0  0  0  0  0  0  0
    4.4756   -0.9490   -0.0520 H   0  0  0  0  0  0  0  0  0  0  0  0
    3.0691   -1.9620   -0.4477 H   0  0  0  0  0  0  0  0  0  0  0  0
    3.4046   -1.5621    1.2304 H   0  0  0  0  0  0  0  0  0  0  0  0
  1  2  1  0
  2  3  1  0
  2  4  1  0
  4  5  1  0
  5  6  2  0
  5  7  1  0
  5  8  1  0
  8  9  1  0
  9 10  1  0
  9 11  1  0
  1 12  1  0
  1 13  1  0
  1 14  1  0
  2 15  1  0
  3 16  1  0
  3 17  1  0
  3 18  1  0
  9 19  1  0
 10 20  1  0
 10 21  1  0
 10 22  1  0
 11 23  1  0
 11 24  1  0
 11 25  1  0
M  END
$$$$
