
     RDKit          3D

 41 41  0  0  0  0  0  0  0  0999 V2000
   -1.5790    3.9506   -1.3892 C   0  0  0  0  0  0  0  0  0  0  0  0
   -1.8766    3.2331   -0.0891 C   0  0  0  0  0  0  0  0  0  0  0  0
   -1.9805    1.8443   -0.3535 O   0  0  0  0  0  0  0  0  0  0  0  0
   -1.9993    0.8555    0.9246 P   0  0  1  0  0  5  0  0  0  0  0  0
   -2.9961    1.3146    1.9472 O   0  0  0  0  0  0  0  0  0  0  0  0
   -2.2896   -0.6330    0.3041 N   0  0  0  0  0  0  0  0  0  0  0  0
   -2.1154   -1.8134    1.1430 C   0  0  0  0  0  0  0  0  0  0  0  0
   -1.9907   -3.0333    0.2313 C   0  0  0  0  0  0  0  0  0  0  0  0
   -3.2815   -1.9929    2.1123 C   0  0  0  0  0  0  0  0  0  0  0  0
   -0.4851    0.9167    1.4716 O   0  0  0  0  0  0  0  0  0  0  0  0
    0.6640    0.6591    0.7804 C   0  0  0  0  0  0  0  0  0  0  0  0
    1.8426    0.7790    1.5125 C   0  0  0  0  0  0  0  0  0  0  0  0
    3.0755    0.5398    0.9046 C   0  0  0  0  0  0  0  0  0  0  0  0
    3.1445    0.1717   -0.4449 C   0  0  0  0  0  0  0  0  0  0  0  0
    4.7612   -0.1151   -1.1571 S   0  0  0  0  0  0  0  0  0  0  0  0
    5.0404   -1.7934   -0.5358 C   0  0  0  0  0  0  0  0  0  0  0  0
    1.9589    0.0578   -1.1944 C   0  0  0  0  0  0  0  0  0  0  0  0
    1.9679   -0.3170   -2.6523 C   0  0  0  0  0  0  0  0  0  0  0  0
    0.7229    0.3026   -0.5647 C   0  0  0  0  0  0  0  0  0  0  0  0
   -2.3681    3.7609   -2.1243 H   0  0  0  0  0  0  0  0  0  0  0  0
   -1.4965    5.0293   -1.2299 H   0  0  0  0  0  0  0  0  0  0  0  0
   -0.6433    3.5849   -1.8251 H   0  0  0  0  0  0  0  0  0  0  0  0
   -1.0756    3.4201    0.6331 H   0  0  0  0  0  0  0  0  0  0  0  0
   -2.8223    3.5888    0.3310 H   0  0  0  0  0  0  0  0  0  0  0  0
   -3.2060   -0.6568   -0.1290 H   0  0  0  0  0  0  0  0  0  0  0  0
   -1.1854   -1.7260    1.7158 H   0  0  0  0  0  0  0  0  0  0  0  0
   -1.1438   -2.9244   -0.4558 H   0  0  0  0  0  0  0  0  0  0  0  0
   -2.8959   -3.1850   -0.3678 H   0  0  0  0  0  0  0  0  0  0  0  0
   -1.8228   -3.9409    0.8213 H   0  0  0  0  0  0  0  0  0  0  0  0
   -3.3402   -1.1633    2.8234 H   0  0  0  0  0  0  0  0  0  0  0  0
   -3.1601   -2.9129    2.6945 H   0  0  0  0  0  0  0  0  0  0  0  0
   -4.2392   -2.0564    1.5837 H   0  0  0  0  0  0  0  0  0  0  0  0
    1.8058    1.0640    2.5610 H   0  0  0  0  0  0  0  0  0  0  0  0
    3.9830    0.6489    1.4942 H   0  0  0  0  0  0  0  0  0  0  0  0
    5.0670   -1.8014    0.5572 H   0  0  0  0  0  0  0  0  0  0  0  0
    6.0008   -2.1589   -0.9088 H   0  0  0  0  0  0  0  0  0  0  0  0
    4.2527   -2.4671   -0.8843 H   0  0  0  0  0  0  0  0  0  0  0  0
    2.4099   -1.3090   -2.7897 H   0  0  0  0  0  0  0  0  0  0  0  0
    2.5281    0.4219   -3.2341 H   0  0  0  0  0  0  0  0  0  0  0  0
    0.9535   -0.3535   -3.0643 H   0  0  0  0  0  0  0  0  0  0  0  0
   -0.1858    0.2102   -1.1527 H   0  0  0  0  0  0  0  0  0  0  0  0
  1  2  1  0
  2  3  1  0
  4  3  1  6
  4  5  2  0
  4  6  1  0
  6  7  1  0
  7  8  1  0
  7  9  1  0
  4 10  1  0
 10 11  1  0
 11 12  1  0
 12 13  2  0
 13 14  1  0
 14 15  1  0
 15 16  1  0
 14 17  2  0
 17 18  1  0
 17 19  1  0
 19 11  2  0
  1 20  1  0
  1 21  1  0
  1 22  1  0
  2 23  1  0
  2 24  1  0
  6 25  1  0
  7 26  1  0
  8 27  1  0
  8 28  1  0
  8 29  1  0
  9 30  1  0
  9 31  1  0
  9 32  1  0
 12 33  1  0
 13 34  1  0
 16 35  1  0
 16 36  1  0
 16 37  1  0
 18 38  1  0
 18 39  1  0
 18 40  1  0
 19 41  1  0
M  END
$$$$
