
     RDKit          3D

 42 41  0  0  0  0  0  0  0  0999 V2000
   -2.6031   -1.7178   -1.6704 C   0  0  0  0  0  0  0  0  0  0  0  0
   -3.1464   -0.6109   -0.7757 C   0  0  0  0  0  0  0  0  0  0  0  0
   -2.0421    0.0603   -0.0684 N   0  0  0  0  0  0  0  0  0  0  0  0
   -1.9965   -0.2967    1.3636 C   0  0  0  0  0  0  0  0  0  0  0  0
   -1.7293   -1.7750    1.6252 C   0  0  0  0  0  0  0  0  0  0  0  0
   -2.1246    1.5332   -0.1992 C   0  0  0  0  0  0  0  0  0  0  0  0
   -1.8319    2.0859   -1.6083 C   0  0  0  0  0  0  0  0  0  0  0  0
   -0.1989    1.6343   -2.2758 S   0  0  0  0  0  0  0  0  0  0  0  0
    1.1368    2.3217   -0.8289 P   0  0  1  0  0  5  0  0  0  0  0  0
    2.7505    2.5273   -1.5811 C   0  0  0  0  0  0  0  0  0  0  0  0
    0.6494    3.6226   -0.2515 O   0  0  0  0  0  0  0  0  0  0  0  0
    1.3926    1.2221    0.3290 O   0  0  0  0  0  0  0  0  0  0  0  0
    1.7028   -0.1172   -0.0192 C   0  0  0  0  0  0  0  0  0  0  0  0
    2.2105   -0.8607    1.2210 C   0  0  0  0  0  0  0  0  0  0  0  0
    2.4546   -2.3332    0.8977 C   0  0  0  0  0  0  0  0  0  0  0  0
    3.4869   -0.2190    1.7697 C   0  0  0  0  0  0  0  0  0  0  0  0
   -1.9143   -1.3162   -2.4209 H   0  0  0  0  0  0  0  0  0  0  0  0
   -2.0738   -2.4855   -1.0989 H   0  0  0  0  0  0  0  0  0  0  0  0
   -3.4265   -2.2066   -2.2015 H   0  0  0  0  0  0  0  0  0  0  0  0
   -3.8908   -1.0202   -0.0817 H   0  0  0  0  0  0  0  0  0  0  0  0
   -3.7068    0.0824   -1.4136 H   0  0  0  0  0  0  0  0  0  0  0  0
   -1.1790    0.2571    1.8426 H   0  0  0  0  0  0  0  0  0  0  0  0
   -2.9233    0.0025    1.8697 H   0  0  0  0  0  0  0  0  0  0  0  0
   -2.5689   -2.4038    1.3150 H   0  0  0  0  0  0  0  0  0  0  0  0
   -1.5743   -1.9409    2.6965 H   0  0  0  0  0  0  0  0  0  0  0  0
   -0.8295   -2.1129    1.1024 H   0  0  0  0  0  0  0  0  0  0  0  0
   -1.4143    2.0026    0.4922 H   0  0  0  0  0  0  0  0  0  0  0  0
   -3.1178    1.8802    0.1167 H   0  0  0  0  0  0  0  0  0  0  0  0
   -1.8888    3.1793   -1.5790 H   0  0  0  0  0  0  0  0  0  0  0  0
   -2.5873    1.7518   -2.3256 H   0  0  0  0  0  0  0  0  0  0  0  0
    2.7152    3.3231   -2.3309 H   0  0  0  0  0  0  0  0  0  0  0  0
    3.4885    2.8035   -0.8228 H   0  0  0  0  0  0  0  0  0  0  0  0
    3.0873    1.6135   -2.0767 H   0  0  0  0  0  0  0  0  0  0  0  0
    2.4593   -0.1375   -0.8092 H   0  0  0  0  0  0  0  0  0  0  0  0
    0.7986   -0.6006   -0.4004 H   0  0  0  0  0  0  0  0  0  0  0  0
    1.4463   -0.7937    2.0056 H   0  0  0  0  0  0  0  0  0  0  0  0
    3.2272   -2.4489    0.1299 H   0  0  0  0  0  0  0  0  0  0  0  0
    2.7797   -2.8784    1.7901 H   0  0  0  0  0  0  0  0  0  0  0  0
    1.5397   -2.8094    0.5305 H   0  0  0  0  0  0  0  0  0  0  0  0
    3.3113    0.8197    2.0680 H   0  0  0  0  0  0  0  0  0  0  0  0
    3.8440   -0.7602    2.6525 H   0  0  0  0  0  0  0  0  0  0  0  0
    4.2871   -0.2260    1.0218 H   0  0  0  0  0  0  0  0  0  0  0  0
  1  2  1  0
  2  3  1  0
  3  4  1  0
  4  5  1  0
  3  6  1  0
  6  7  1  0
  7  8  1  0
  8  9  1  0
  9 10  1  0
  9 11  2  0
  9 12  1  1
 12 13  1  0
 13 14  1  0
 14 15  1  0
 14 16  1  0
  1 17  1  0
  1 18  1  0
  1 19  1  0
  2 20  1  0
  2 21  1  0
  4 22  1  0
  4 23  1  0
  5 24  1  0
  5 25  1  0
  5 26  1  0
  6 27  1  0
  6 28  1  0
  7 29  1  0
  7 30  1  0
 10 31  1  0
 10 32  1  0
 10 33  1  0
 13 34  1  0
 13 35  1  0
 14 36  1  0
 15 37  1  0
 15 38  1  0
 15 39  1  0
 16 40  1  0
 16 41  1  0
 16 42  1  0
M  END
$$$$
