
     RDKit          3D

 28 27  0  0  0  0  0  0  0  0999 V2000
   -2.8900   -1.3878    0.7318 C   0  0  0  0  0  0  0  0  0  0  0  0
   -2.1987   -0.8045   -0.4912 C   0  0  0  0  0  0  0  0  0  0  0  0
   -1.0172   -0.0346   -0.0999 N   0  0  0  0  0  0  0  0  0  0  0  0
   -1.2562    1.3822    0.2029 C   0  0  0  0  0  0  0  0  0  0  0  0
   -0.9917    2.2442   -1.0221 C   0  0  0  0  0  0  0  0  0  0  0  0
    0.2693   -0.5674   -0.0223 C   0  0  0  0  0  0  0  0  0  0  0  0
    0.4815   -2.0348   -0.3610 C   0  0  0  0  0  0  0  0  0  0  0  0
    1.2671    0.1968    0.3011 N   0  0  0  0  0  0  0  0  0  0  0  0
    2.8073   -0.2199    0.4160 P   0  0  1  0  0  5  0  0  0  0  0  0
    3.7024    1.3124    0.6529 C   0  0  0  0  0  0  0  0  0  0  0  0
    3.1637   -1.2322    1.4688 O   0  0  0  0  0  0  0  0  0  0  0  0
    3.1533   -0.8199   -0.9990 F   0  0  0  0  0  0  0  0  0  0  0  0
   -3.7651   -1.9713    0.4295 H   0  0  0  0  0  0  0  0  0  0  0  0
   -3.2281   -0.5971    1.4096 H   0  0  0  0  0  0  0  0  0  0  0  0
   -2.2212   -2.0440    1.2971 H   0  0  0  0  0  0  0  0  0  0  0  0
   -2.9054   -0.1612   -1.0298 H   0  0  0  0  0  0  0  0  0  0  0  0
   -1.9383   -1.6032   -1.1935 H   0  0  0  0  0  0  0  0  0  0  0  0
   -2.2921    1.5336    0.5298 H   0  0  0  0  0  0  0  0  0  0  0  0
   -0.6294    1.7125    1.0396 H   0  0  0  0  0  0  0  0  0  0  0  0
   -1.1874    3.2966   -0.7940 H   0  0  0  0  0  0  0  0  0  0  0  0
    0.0470    2.1571   -1.3564 H   0  0  0  0  0  0  0  0  0  0  0  0
   -1.6365    1.9508   -1.8570 H   0  0  0  0  0  0  0  0  0  0  0  0
    0.4020   -2.1610   -1.4448 H   0  0  0  0  0  0  0  0  0  0  0  0
   -0.2740   -2.6529    0.1292 H   0  0  0  0  0  0  0  0  0  0  0  0
    1.4547   -2.4067   -0.0427 H   0  0  0  0  0  0  0  0  0  0  0  0
    4.7793    1.1238    0.6518 H   0  0  0  0  0  0  0  0  0  0  0  0
    3.4292    1.7729    1.6062 H   0  0  0  0  0  0  0  0  0  0  0  0
    3.4745    2.0156   -0.1528 H   0  0  0  0  0  0  0  0  0  0  0  0
  1  2  1  0
  2  3  1  0
  3  4  1  0
  4  5  1  0
  3  6  1  0
  6  7  1  0
  6  8  2  0
  8  9  1  0
  9 10  1  0
  9 11  2  0
  9 12  1  6
  1 13  1  0
  1 14  1  0
  1 15  1  0
  2 16  1  0
  2 17  1  0
  4 18  1  0
  4 19  1  0
  5 20  1  0
  5 21  1  0
  5 22  1  0
  7 23  1  0
  7 24  1  0
  7 25  1  0
 10 26  1  0
 10 27  1  0
 10 28  1  0
M  END
$$$$
