
     RDKit          3D

 28 27  0  0  0  0  0  0  0  0999 V2000
   -1.0486    2.0159    1.2958 C   0  0  0  0  0  0  0  0  0  0  0  0
   -1.1252    1.2548   -0.0187 C   0  0  0  0  0  0  0  0  0  0  0  0
   -0.3202    0.0218    0.0038 N   0  0  0  0  0  0  0  0  0  0  0  0
   -0.6734   -0.9856    1.0281 C   0  0  0  0  0  0  0  0  0  0  0  0
   -2.1131   -1.4659    0.9131 C   0  0  0  0  0  0  0  0  0  0  0  0
    0.2075   -0.4557   -1.1873 C   0  0  0  0  0  0  0  0  0  0  0  0
   -0.6644   -0.4234   -2.4291 C   0  0  0  0  0  0  0  0  0  0  0  0
    1.4071   -0.8952   -1.3593 N   0  0  0  0  0  0  0  0  0  0  0  0
    2.5825   -0.9418   -0.2751 P   0  0  1  0  0  5  0  0  0  0  0  0
    2.9707    0.7503    0.1679 C   0  0  0  0  0  0  0  0  0  0  0  0
    2.3993   -1.8102    0.9399 O   0  0  0  0  0  0  0  0  0  0  0  0
    3.7920   -1.5326   -1.0984 F   0  0  0  0  0  0  0  0  0  0  0  0
   -0.0094    2.1946    1.5897 H   0  0  0  0  0  0  0  0  0  0  0  0
   -1.5423    1.4722    2.1068 H   0  0  0  0  0  0  0  0  0  0  0  0
   -1.5475    2.9855    1.1985 H   0  0  0  0  0  0  0  0  0  0  0  0
   -0.7375    1.9182   -0.8019 H   0  0  0  0  0  0  0  0  0  0  0  0
   -2.1679    1.0388   -0.2752 H   0  0  0  0  0  0  0  0  0  0  0  0
   -0.0297   -1.8643    0.9297 H   0  0  0  0  0  0  0  0  0  0  0  0
   -0.4883   -0.5798    2.0282 H   0  0  0  0  0  0  0  0  0  0  0  0
   -2.8262   -0.6643    1.1270 H   0  0  0  0  0  0  0  0  0  0  0  0
   -2.2978   -2.2705    1.6322 H   0  0  0  0  0  0  0  0  0  0  0  0
   -2.3247   -1.8520   -0.0888 H   0  0  0  0  0  0  0  0  0  0  0  0
   -0.5422    0.5422   -2.9280 H   0  0  0  0  0  0  0  0  0  0  0  0
   -1.7161   -0.5646   -2.1675 H   0  0  0  0  0  0  0  0  0  0  0  0
   -0.3661   -1.2178   -3.1198 H   0  0  0  0  0  0  0  0  0  0  0  0
    3.8865    0.7769    0.7645 H   0  0  0  0  0  0  0  0  0  0  0  0
    3.1285    1.3529   -0.7307 H   0  0  0  0  0  0  0  0  0  0  0  0
    2.1663    1.1995    0.7544 H   0  0  0  0  0  0  0  0  0  0  0  0
  1  2  1  0
  2  3  1  0
  3  4  1  0
  4  5  1  0
  3  6  1  0
  6  7  1  0
  6  8  2  0
  8  9  1  0
  9 10  1  0
  9 11  2  0
  9 12  1  6
  1 13  1  0
  1 14  1  0
  1 15  1  0
  2 16  1  0
  2 17  1  0
  4 18  1  0
  4 19  1  0
  5 20  1  0
  5 21  1  0
  5 22  1  0
  7 23  1  0
  7 24  1  0
  7 25  1  0
 10 26  1  0
 10 27  1  0
 10 28  1  0
M  END
$$$$
