
     RDKit          3D

 15 14  0  0  0  0  0  0  0  0999 V2000
   -2.4365    0.8746    0.2649 C   0  0  0  0  0  0  0  0  0  0  0  0
   -1.7983   -0.3807    0.3852 O   0  0  0  0  0  0  0  0  0  0  0  0
   -0.3176   -0.5140   -0.2389 P   0  0  1  0  0  5  0  0  0  0  0  0
   -0.0462   -2.1262   -0.2690 N   0  0  0  0  0  0  0  0  0  0  0  0
   -0.1874    0.1585   -1.5712 O   0  0  0  0  0  0  0  0  0  0  0  0
    1.0665    0.2738    1.1007 S   0  0  0  0  0  0  0  0  0  0  0  0
    2.4782    0.6892    0.0617 C   0  0  0  0  0  0  0  0  0  0  0  0
   -1.7991    1.6700    0.6600 H   0  0  0  0  0  0  0  0  0  0  0  0
   -2.6740    1.0738   -0.7835 H   0  0  0  0  0  0  0  0  0  0  0  0
   -3.3666    0.8508    0.8382 H   0  0  0  0  0  0  0  0  0  0  0  0
   -0.0986   -2.5395    0.6535 H   0  0  0  0  0  0  0  0  0  0  0  0
    0.8623   -2.3586   -0.6483 H   0  0  0  0  0  0  0  0  0  0  0  0
    3.2953    1.0639    0.6832 H   0  0  0  0  0  0  0  0  0  0  0  0
    2.8212   -0.1977   -0.4770 H   0  0  0  0  0  0  0  0  0  0  0  0
    2.2009    1.4621   -0.6593 H   0  0  0  0  0  0  0  0  0  0  0  0
  1  2  1  0
  3  2  1  1
  3  4  1  0
  3  5  2  0
  3  6  1  0
  6  7  1  0
  1  8  1  0
  1  9  1  0
  1 10  1  0
  4 11  1  0
  4 12  1  0
  7 13  1  0
  7 14  1  0
  7 15  1  0
M  END
$$$$
