
     RDKit          3D

 25 25  0  0  0  0  0  0  0  0999 V2000
    3.8198   -0.6482    0.5585 C   0  0  0  0  0  0  0  0  0  0  0  0
    2.6488    0.1336   -0.5262 P   0  0  2  0  0  5  0  0  0  0  0  0
    2.5978   -0.4474   -1.9086 O   0  0  0  0  0  0  0  0  0  0  0  0
    2.8367    1.6916   -0.5982 F   0  0  0  0  0  0  0  0  0  0  0  0
    1.2505   -0.0074    0.2739 O   0  0  0  0  0  0  0  0  0  0  0  0
    0.0714    0.4476   -0.3841 C   0  0  0  0  0  0  0  0  0  0  0  0
   -0.6812   -0.7578   -0.9632 C   0  0  0  0  0  0  0  0  0  0  0  0
   -1.7297   -1.2914    0.0078 C   0  0  0  0  0  0  0  0  0  0  0  0
   -2.7800   -0.2321    0.3505 C   0  0  0  0  0  0  0  0  0  0  0  0
   -2.2374    1.1983    0.3197 C   0  0  0  0  0  0  0  0  0  0  0  0
   -0.7506    1.2389    0.6401 C   0  0  0  0  0  0  0  0  0  0  0  0
    3.8040   -0.1770    1.5450 H   0  0  0  0  0  0  0  0  0  0  0  0
    4.8316   -0.5605    0.1537 H   0  0  0  0  0  0  0  0  0  0  0  0
    3.5866   -1.7097    0.6792 H   0  0  0  0  0  0  0  0  0  0  0  0
    0.3517    1.1143   -1.2092 H   0  0  0  0  0  0  0  0  0  0  0  0
   -1.1889   -0.4548   -1.8876 H   0  0  0  0  0  0  0  0  0  0  0  0
    0.0160   -1.5617   -1.2247 H   0  0  0  0  0  0  0  0  0  0  0  0
   -1.2327   -1.6229    0.9283 H   0  0  0  0  0  0  0  0  0  0  0  0
   -2.2237   -2.1739   -0.4144 H   0  0  0  0  0  0  0  0  0  0  0  0
   -3.6219   -0.3033   -0.3489 H   0  0  0  0  0  0  0  0  0  0  0  0
   -3.1894   -0.4530    1.3437 H   0  0  0  0  0  0  0  0  0  0  0  0
   -2.7976    1.8202    1.0269 H   0  0  0  0  0  0  0  0  0  0  0  0
   -2.4038    1.6299   -0.6754 H   0  0  0  0  0  0  0  0  0  0  0  0
   -0.5810    0.8499    1.6529 H   0  0  0  0  0  0  0  0  0  0  0  0
   -0.3969    2.2768    0.6603 H   0  0  0  0  0  0  0  0  0  0  0  0
  1  2  1  0
  2  3  2  0
  2  4  1  6
  2  5  1  0
  5  6  1  0
  6  7  1  0
  7  8  1  0
  8  9  1  0
  9 10  1  0
 10 11  1  0
 11  6  1  0
  1 12  1  0
  1 13  1  0
  1 14  1  0
  6 15  1  0
  7 16  1  0
  7 17  1  0
  8 18  1  0
  8 19  1  0
  9 20  1  0
  9 21  1  0
 10 22  1  0
 10 23  1  0
 11 24  1  0
 11 25  1  0
M  END
$$$$
