
     RDKit          3D

 25 25  0  0  0  0  0  0  0  0999 V2000
    3.8185   -0.7118    0.2727 C   0  0  0  0  0  0  0  0  0  0  0  0
    2.6286    0.4484   -0.3578 P   0  0  1  0  0  5  0  0  0  0  0  0
    2.6591    1.7925    0.3080 O   0  0  0  0  0  0  0  0  0  0  0  0
    2.7123    0.6125   -1.9179 F   0  0  0  0  0  0  0  0  0  0  0  0
    1.2211   -0.3245   -0.1676 O   0  0  0  0  0  0  0  0  0  0  0  0
    0.0319    0.3849   -0.5055 C   0  0  0  0  0  0  0  0  0  0  0  0
   -0.9257   -0.5876   -1.2067 C   0  0  0  0  0  0  0  0  0  0  0  0
   -1.8497   -1.2836   -0.2126 C   0  0  0  0  0  0  0  0  0  0  0  0
   -2.7212   -0.2830    0.5501 C   0  0  0  0  0  0  0  0  0  0  0  0
   -2.0689    1.0906    0.7184 C   0  0  0  0  0  0  0  0  0  0  0  0
   -0.5518    0.9863    0.7791 C   0  0  0  0  0  0  0  0  0  0  0  0
    4.8332   -0.3276    0.1387 H   0  0  0  0  0  0  0  0  0  0  0  0
    3.7416   -1.6663   -0.2552 H   0  0  0  0  0  0  0  0  0  0  0  0
    3.6553   -0.8928    1.3386 H   0  0  0  0  0  0  0  0  0  0  0  0
    0.2794    1.1844   -1.2146 H   0  0  0  0  0  0  0  0  0  0  0  0
   -1.5429   -0.0336   -1.9253 H   0  0  0  0  0  0  0  0  0  0  0  0
   -0.3632   -1.3389   -1.7731 H   0  0  0  0  0  0  0  0  0  0  0  0
   -1.2451   -1.8577    0.5008 H   0  0  0  0  0  0  0  0  0  0  0  0
   -2.4896   -2.0067   -0.7310 H   0  0  0  0  0  0  0  0  0  0  0  0
   -2.9598   -0.7045    1.5342 H   0  0  0  0  0  0  0  0  0  0  0  0
   -3.6799   -0.1552    0.0329 H   0  0  0  0  0  0  0  0  0  0  0  0
   -2.4546    1.5731    1.6235 H   0  0  0  0  0  0  0  0  0  0  0  0
   -2.3526    1.7346   -0.1236 H   0  0  0  0  0  0  0  0  0  0  0  0
   -0.2586    0.3868    1.6510 H   0  0  0  0  0  0  0  0  0  0  0  0
   -0.1176    1.9796    0.9430 H   0  0  0  0  0  0  0  0  0  0  0  0
  1  2  1  0
  2  3  2  0
  2  4  1  6
  2  5  1  0
  5  6  1  0
  6  7  1  0
  7  8  1  0
  8  9  1  0
  9 10  1  0
 10 11  1  0
 11  6  1  0
  1 12  1  0
  1 13  1  0
  1 14  1  0
  6 15  1  0
  7 16  1  0
  7 17  1  0
  8 18  1  0
  8 19  1  0
  9 20  1  0
  9 21  1  0
 10 22  1  0
 10 23  1  0
 11 24  1  0
 11 25  1  0
M  END
$$$$
