
     RDKit          3D

 42 41  0  0  0  0  0  0  0  0999 V2000
    2.3985   -1.6457    2.1319 C   0  0  0  0  0  0  0  0  0  0  0  0
    2.4732   -0.8498    0.8448 C   0  0  0  0  0  0  0  0  0  0  0  0
    2.3277    0.5243    1.1566 O   0  0  0  0  0  0  0  0  0  0  0  0
    2.6493    1.6460    0.0368 P   0  0  2  0  0  5  0  0  0  0  0  0
    4.4288    1.5460   -0.1566 C   0  0  0  0  0  0  0  0  0  0  0  0
    2.2421    3.0182    0.4994 O   0  0  0  0  0  0  0  0  0  0  0  0
    1.7542    1.2057   -1.7951 S   0  0  0  0  0  0  0  0  0  0  0  0
    0.1450    2.0507   -1.7083 C   0  0  0  0  0  0  0  0  0  0  0  0
   -0.7538    1.6127   -0.5331 C   0  0  0  0  0  0  0  0  0  0  0  0
   -1.0041    0.1586   -0.3924 N   0  0  0  0  0  0  0  0  0  0  0  0
   -1.3410   -0.1956    1.0063 C   0  0  0  0  0  0  0  0  0  0  0  0
   -1.4372   -1.6978    1.2888 C   0  0  0  0  0  0  0  0  0  0  0  0
   -2.5490    0.5255    1.6261 C   0  0  0  0  0  0  0  0  0  0  0  0
   -1.7790   -0.4033   -1.5163 C   0  0  0  0  0  0  0  0  0  0  0  0
   -3.3026   -0.3575   -1.3992 C   0  0  0  0  0  0  0  0  0  0  0  0
   -1.3042   -1.8146   -1.8869 C   0  0  0  0  0  0  0  0  0  0  0  0
    2.4860   -2.7175    1.9336 H   0  0  0  0  0  0  0  0  0  0  0  0
    3.1999   -1.3466    2.8157 H   0  0  0  0  0  0  0  0  0  0  0  0
    1.4527   -1.4578    2.6502 H   0  0  0  0  0  0  0  0  0  0  0  0
    3.4332   -1.0310    0.3549 H   0  0  0  0  0  0  0  0  0  0  0  0
    1.6705   -1.1571    0.1695 H   0  0  0  0  0  0  0  0  0  0  0  0
    4.7754    2.3257   -0.8412 H   0  0  0  0  0  0  0  0  0  0  0  0
    4.7388    0.5798   -0.5622 H   0  0  0  0  0  0  0  0  0  0  0  0
    4.9227    1.6927    0.8080 H   0  0  0  0  0  0  0  0  0  0  0  0
    0.3370    3.1260   -1.6242 H   0  0  0  0  0  0  0  0  0  0  0  0
   -0.3617    1.9054   -2.6667 H   0  0  0  0  0  0  0  0  0  0  0  0
   -0.2816    1.9916    0.3820 H   0  0  0  0  0  0  0  0  0  0  0  0
   -1.7087    2.1469   -0.6188 H   0  0  0  0  0  0  0  0  0  0  0  0
   -0.4749    0.1301    1.5995 H   0  0  0  0  0  0  0  0  0  0  0  0
   -2.3501   -2.1398    0.8813 H   0  0  0  0  0  0  0  0  0  0  0  0
   -1.4488   -1.8789    2.3701 H   0  0  0  0  0  0  0  0  0  0  0  0
   -0.5707   -2.2337    0.8883 H   0  0  0  0  0  0  0  0  0  0  0  0
   -2.5963    0.3171    2.7016 H   0  0  0  0  0  0  0  0  0  0  0  0
   -3.4997    0.2018    1.1983 H   0  0  0  0  0  0  0  0  0  0  0  0
   -2.4780    1.6123    1.5225 H   0  0  0  0  0  0  0  0  0  0  0  0
   -1.5467    0.1821   -2.4125 H   0  0  0  0  0  0  0  0  0  0  0  0
   -3.7617   -0.6392   -2.3540 H   0  0  0  0  0  0  0  0  0  0  0  0
   -3.6836   -1.0530   -0.6471 H   0  0  0  0  0  0  0  0  0  0  0  0
   -3.6529    0.6521   -1.1620 H   0  0  0  0  0  0  0  0  0  0  0  0
   -1.6653   -2.5818   -1.1990 H   0  0  0  0  0  0  0  0  0  0  0  0
   -1.6730   -2.0840   -2.8837 H   0  0  0  0  0  0  0  0  0  0  0  0
   -0.2105   -1.8667   -1.9233 H   0  0  0  0  0  0  0  0  0  0  0  0
  1  2  1  0
  2  3  1  0
  4  3  1  1
  4  5  1  0
  4  6  2  0
  4  7  1  0
  7  8  1  0
  8  9  1  0
  9 10  1  0
 10 11  1  0
 11 12  1  0
 11 13  1  0
 10 14  1  0
 14 15  1  0
 14 16  1  0
  1 17  1  0
  1 18  1  0
  1 19  1  0
  2 20  1  0
  2 21  1  0
  5 22  1  0
  5 23  1  0
  5 24  1  0
  8 25  1  0
  8 26  1  0
  9 27  1  0
  9 28  1  0
 11 29  1  0
 12 30  1  0
 12 31  1  0
 12 32  1  0
 13 33  1  0
 13 34  1  0
 13 35  1  0
 14 36  1  0
 15 37  1  0
 15 38  1  0
 15 39  1  0
 16 40  1  0
 16 41  1  0
 16 42  1  0
M  END
$$$$
