VX_00_P3S
 OpenBabel06182618573D

 42 41  0  0  0  0  0  0  0  0999 V2000
   -9.6128  -46.2553   31.2047 C   0  0  0  0  0  0  0  0  0  0  0  0
   -7.8574  -45.8657   31.4842 S   0  0  0  0  0  0  0  0  0  0  0  0
   -7.8623  -43.8275   31.9275 P   0  0  1  0  0  0  0  0  0  0  0  0
   -6.5413  -43.4916   33.0920 C   0  0  0  0  0  0  0  0  0  0  0  0
   -7.6802  -43.0204   30.6713 O   0  0  0  0  0  0  0  0  0  0  0  0
   -9.1945  -43.3822   32.7292 O   0  0  0  0  0  0  0  0  0  0  0  0
  -10.4808  -42.0994   34.2670 C   0  0  0  0  0  0  0  0  0  0  0  0
   -9.0894  -42.5482   33.8694 C   0  0  0  0  0  0  0  0  0  0  0  0
  -10.1015  -46.0391   29.7573 C   0  0  0  0  0  0  0  0  0  0  0  0
  -11.3028  -45.1890   29.5802 N   0  0  0  0  0  0  0  0  0  0  0  0
  -10.9376  -43.8374   29.0952 C   0  0  0  0  0  0  0  0  0  0  0  0
  -11.1032  -42.7140   30.1229 C   0  0  0  0  0  0  0  0  0  0  0  0
  -11.5441  -43.4023   27.7513 C   0  0  0  0  0  0  0  0  0  0  0  0
  -12.4407  -45.9176   28.9856 C   0  0  0  0  0  0  0  0  0  0  0  0
  -12.2730  -46.4111   27.5484 C   0  0  0  0  0  0  0  0  0  0  0  0
  -13.7577  -45.1465   29.1456 C   0  0  0  0  0  0  0  0  0  0  0  0
   -9.7703  -47.2826   31.4592 H   0  0  0  0  0  0  0  0  0  0  0  0
  -10.1724  -45.5782   31.8157 H   0  0  0  0  0  0  0  0  0  0  0  0
   -6.5315  -42.4482   33.3291 H   0  0  0  0  0  0  0  0  0  0  0  0
   -5.6035  -43.7673   32.6568 H   0  0  0  0  0  0  0  0  0  0  0  0
   -6.7004  -44.0588   33.9852 H   0  0  0  0  0  0  0  0  0  0  0  0
  -10.4192  -41.4675   35.1283 H   0  0  0  0  0  0  0  0  0  0  0  0
  -11.0802  -42.9559   34.4952 H   0  0  0  0  0  0  0  0  0  0  0  0
  -10.9256  -41.5579   33.4584 H   0  0  0  0  0  0  0  0  0  0  0  0
   -8.6419  -43.0925   34.6746 H   0  0  0  0  0  0  0  0  0  0  0  0
   -8.4797  -41.6977   33.6464 H   0  0  0  0  0  0  0  0  0  0  0  0
  -10.3206  -47.0006   29.3421 H   0  0  0  0  0  0  0  0  0  0  0  0
   -9.3091  -45.5114   29.2689 H   0  0  0  0  0  0  0  0  0  0  0  0
   -9.8918  -43.9831   28.9219 H   0  0  0  0  0  0  0  0  0  0  0  0
  -12.1442  -42.5526   30.3103 H   0  0  0  0  0  0  0  0  0  0  0  0
  -10.6658  -41.8148   29.7420 H   0  0  0  0  0  0  0  0  0  0  0  0
  -10.6153  -42.9897   31.0344 H   0  0  0  0  0  0  0  0  0  0  0  0
  -12.5954  -43.2423   27.8696 H   0  0  0  0  0  0  0  0  0  0  0  0
  -11.3796  -44.1673   27.0214 H   0  0  0  0  0  0  0  0  0  0  0  0
  -11.0794  -42.4945   27.4275 H   0  0  0  0  0  0  0  0  0  0  0  0
  -12.4704  -46.8172   29.5642 H   0  0  0  0  0  0  0  0  0  0  0  0
  -12.2324  -45.5721   26.8856 H   0  0  0  0  0  0  0  0  0  0  0  0
  -13.1030  -47.0332   27.2858 H   0  0  0  0  0  0  0  0  0  0  0  0
  -11.3663  -46.9735   27.4679 H   0  0  0  0  0  0  0  0  0  0  0  0
  -13.7186  -44.2493   28.5639 H   0  0  0  0  0  0  0  0  0  0  0  0
  -13.9023  -44.8974   30.1761 H   0  0  0  0  0  0  0  0  0  0  0  0
  -14.5706  -45.7551   28.8083 H   0  0  0  0  0  0  0  0  0  0  0  0
  1  9  1  0  0  0  0
  1 17  1  0  0  0  0
  1 18  1  0  0  0  0
  2  1  1  0  0  0  0
  3  6  1  0  0  0  0
  3  4  1  0  0  0  0
  3  5  2  6  0  0  0
  3  2  1  0  0  0  0
  4 19  1  0  0  0  0
  4 20  1  0  0  0  0
  4 21  1  0  0  0  0
  7  8  1  0  0  0  0
  7 22  1  0  0  0  0
  7 23  1  0  0  0  0
  7 24  1  0  0  0  0
  8  6  1  0  0  0  0
  8 25  1  0  0  0  0
  8 26  1  0  0  0  0
  9 10  1  0  0  0  0
  9 27  1  0  0  0  0
  9 28  1  0  0  0  0
 10 11  1  0  0  0  0
 10 14  1  0  0  0  0
 11 12  1  0  0  0  0
 11 13  1  0  0  0  0
 11 29  1  0  0  0  0
 12 30  1  0  0  0  0
 12 31  1  0  0  0  0
 12 32  1  0  0  0  0
 13 33  1  0  0  0  0
 13 34  1  0  0  0  0
 13 35  1  0  0  0  0
 14 15  1  0  0  0  0
 14 16  1  0  0  0  0
 14 36  1  0  0  0  0
 15 37  1  0  0  0  0
 15 38  1  0  0  0  0
 15 39  1  0  0  0  0
 16 40  1  0  0  0  0
 16 41  1  0  0  0  0
 16 42  1  0  0  0  0
M  END
>  <minimizedAffinity>
-6.01771

>  <CNNscore>
0.9365844727

>  <CNNaffinity>
5.0894608498

>  <CNN_VS>
4.7667098045

>  <CNNaffinity_variance>
0.6746633053

$$$$
