VX_00_P3S
 OpenBabel06182618543D

 16 15  0  0  0  0  0  0  0  0999 V2000
   -9.6128  -46.2553   31.2047 C   0  0  0  0  0  0  0  0  0  0  0  0
   -7.8574  -45.8657   31.4842 S   0  0  0  0  0  0  0  0  0  0  0  0
   -7.8623  -43.8275   31.9275 P   0  0  1  0  0  0  0  0  0  0  0  0
   -6.5413  -43.4916   33.0920 C   0  0  0  0  0  0  0  0  0  0  0  0
   -7.6802  -43.0204   30.6713 O   0  0  0  0  0  0  0  0  0  0  0  0
   -9.1945  -43.3822   32.7292 O   0  0  0  0  0  0  0  0  0  0  0  0
  -10.4808  -42.0994   34.2670 C   0  0  0  0  0  0  0  0  0  0  0  0
   -9.0894  -42.5482   33.8694 C   0  0  0  0  0  0  0  0  0  0  0  0
  -10.1015  -46.0391   29.7573 C   0  0  0  0  0  0  0  0  0  0  0  0
  -11.3028  -45.1890   29.5802 N   0  0  0  0  0  0  0  0  0  0  0  0
  -10.9376  -43.8374   29.0952 C   0  0  0  0  0  0  0  0  0  0  0  0
  -11.1032  -42.7140   30.1229 C   0  0  0  0  0  0  0  0  0  0  0  0
  -11.5441  -43.4023   27.7513 C   0  0  0  0  0  0  0  0  0  0  0  0
  -12.4407  -45.9176   28.9856 C   0  0  0  0  0  0  0  0  0  0  0  0
  -12.2730  -46.4111   27.5484 C   0  0  0  0  0  0  0  0  0  0  0  0
  -13.7577  -45.1465   29.1456 C   0  0  0  0  0  0  0  0  0  0  0  0
  1  9  1  0  0  0  0
  2  1  1  0  0  0  0
  3  6  1  0  0  0  0
  3  4  1  1  0  0  0
  3  5  2  0  0  0  0
  3  2  1  0  0  0  0
  7  8  1  0  0  0  0
  8  6  1  0  0  0  0
  9 10  1  0  0  0  0
 10 11  1  0  0  0  0
 10 14  1  0  0  0  0
 11 12  1  0  0  0  0
 11 13  1  0  0  0  0
 14 15  1  0  0  0  0
 14 16  1  0  0  0  0
M  END
>  <minimizedAffinity>
-6.01771

>  <CNNscore>
0.9365844727

>  <CNNaffinity>
5.0894608498

>  <CNN_VS>
4.7667098045

>  <CNNaffinity_variance>
0.6746633053

$$$$
