A230_02_P8R_C5N7Z_warhead
     RDKit          3D

 28 27  0  0  0  0  0  0  0  0999 V2000
   -0.9967    2.5040    0.4080 C   0  0  0  0  0  0  0  0  0  0  0  0
   -1.4661    1.3181   -0.3914 C   0  0  0  0  0  0  0  0  0  0  0  0
   -0.6467    0.1295   -0.2093 N   0  0  0  0  0  0  0  0  0  0  0  0
   -0.6804   -0.5235    1.1004 C   0  0  0  0  0  0  0  0  0  0  0  0
   -2.0362   -1.1574    1.3461 C   0  0  0  0  0  0  0  0  0  0  0  0
    0.1361   -0.3625   -1.2859 C   0  0  0  0  0  0  0  0  0  0  0  0
   -0.6085   -0.8603   -2.4791 C   0  0  0  0  0  0  0  0  0  0  0  0
    1.4045   -0.4165   -1.3236 N   0  0  0  0  0  0  0  0  0  0  0  0
    2.4218    0.1066   -0.0517 P   0  0  2  0  0  5  0  0  0  0  0  0
    3.3834   -1.2145    0.7014 C   0  0  0  0  0  0  0  0  0  0  0  0
    1.8523    1.0615    0.9240 O   0  0  0  0  0  0  0  0  0  0  0  0
    3.2291    0.6989   -0.5875 R   0  0  0  0  0  0  0  0  0  0  0  0
   -0.2035    3.0308   -0.1970 H   0  0  0  0  0  0  0  0  0  0  0  0
   -0.6174    2.2075    1.4026 H   0  0  0  0  0  0  0  0  0  0  0  0
   -1.8662    3.1802    0.5494 H   0  0  0  0  0  0  0  0  0  0  0  0
   -1.5456    1.5948   -1.4625 H   0  0  0  0  0  0  0  0  0  0  0  0
   -2.5116    1.0901   -0.0348 H   0  0  0  0  0  0  0  0  0  0  0  0
    0.0883   -1.2941    1.2020 H   0  0  0  0  0  0  0  0  0  0  0  0
   -0.5540    0.2386    1.8943 H   0  0  0  0  0  0  0  0  0  0  0  0
   -2.7067   -0.4962    1.9113 H   0  0  0  0  0  0  0  0  0  0  0  0
   -1.8852   -2.0762    1.9454 H   0  0  0  0  0  0  0  0  0  0  0  0
   -2.5600   -1.4362    0.4154 H   0  0  0  0  0  0  0  0  0  0  0  0
   -1.2857   -0.0293   -2.7829 H   0  0  0  0  0  0  0  0  0  0  0  0
   -1.2092   -1.7596   -2.2458 H   0  0  0  0  0  0  0  0  0  0  0  0
    0.0379   -1.0869   -3.3279 H   0  0  0  0  0  0  0  0  0  0  0  0
    3.4314   -2.0598   -0.0112 H   0  0  0  0  0  0  0  0  0  0  0  0
    4.4277   -0.8985    0.8995 H   0  0  0  0  0  0  0  0  0  0  0  0
    2.9671   -1.4894    1.6907 H   0  0  0  0  0  0  0  0  0  0  0  0
  1  2  1  0
  2  3  1  0
  3  4  1  0
  4  5  1  0
  3  6  1  0
  6  7  1  0
  6  8  2  0
  8  9  1  0
  9 10  1  0
  9 11  2  0
  9 12  1  6
  1 13  1  0
  1 14  1  0
  1 15  1  0
  2 16  1  0
  2 17  1  0
  4 18  1  0
  4 19  1  0
  5 20  1  0
  5 21  1  0
  5 22  1  0
  7 23  1  0
  7 24  1  0
  7 25  1  0
 10 26  1  0
 10 27  1  0
 10 28  1  0
M  END
$$$$
