A230_01_P8S_C5N7E_warhead
     RDKit          3D

 28 27  0  0  0  0  0  0  0  0999 V2000
   -2.9262   -1.3589    0.4496 C   0  0  0  0  0  0  0  0  0  0  0  0
   -1.9877   -0.7963   -0.5812 C   0  0  0  0  0  0  0  0  0  0  0  0
   -0.9632    0.0560    0.0086 N   0  0  0  0  0  0  0  0  0  0  0  0
   -1.3996    1.3072    0.5734 C   0  0  0  0  0  0  0  0  0  0  0  0
   -1.8905    2.2959   -0.4454 C   0  0  0  0  0  0  0  0  0  0  0  0
    0.3852   -0.3889   -0.0001 C   0  0  0  0  0  0  0  0  0  0  0  0
    0.6162   -1.8392    0.2416 C   0  0  0  0  0  0  0  0  0  0  0  0
    1.4038    0.3468   -0.1981 N   0  0  0  0  0  0  0  0  0  0  0  0
    3.0475   -0.3039   -0.1894 P   0  0  1  0  0  5  0  0  0  0  0  0
    4.2176    1.0751   -0.2504 C   0  0  0  0  0  0  0  0  0  0  0  0
    3.3067   -1.0450    1.1096 O   0  0  0  0  0  0  0  0  0  0  0  0
    3.1243   -0.9033   -0.9529 R   0  0  0  0  0  0  0  0  0  0  0  0
   -3.9821   -1.1109    0.2268 H   0  0  0  0  0  0  0  0  0  0  0  0
   -2.6839   -0.9439    1.4385 H   0  0  0  0  0  0  0  0  0  0  0  0
   -2.9008   -2.4829    0.4696 H   0  0  0  0  0  0  0  0  0  0  0  0
   -2.5920   -0.2216   -1.3358 H   0  0  0  0  0  0  0  0  0  0  0  0
   -1.5056   -1.6024   -1.1670 H   0  0  0  0  0  0  0  0  0  0  0  0
   -2.1881    1.0938    1.3519 H   0  0  0  0  0  0  0  0  0  0  0  0
   -0.5022    1.7341    1.0882 H   0  0  0  0  0  0  0  0  0  0  0  0
   -2.8156    2.7820   -0.0168 H   0  0  0  0  0  0  0  0  0  0  0  0
   -1.1488    3.1010   -0.5855 H   0  0  0  0  0  0  0  0  0  0  0  0
   -2.1028    1.8653   -1.4367 H   0  0  0  0  0  0  0  0  0  0  0  0
    1.2177   -2.2416   -0.5918 H   0  0  0  0  0  0  0  0  0  0  0  0
   -0.3217   -2.4273    0.2885 H   0  0  0  0  0  0  0  0  0  0  0  0
    1.1238   -1.9932    1.2156 H   0  0  0  0  0  0  0  0  0  0  0  0
    5.1306    0.7623    0.3224 H   0  0  0  0  0  0  0  0  0  0  0  0
    3.7910    1.9499    0.2581 H   0  0  0  0  0  0  0  0  0  0  0  0
    4.5465    1.2900   -1.2913 H   0  0  0  0  0  0  0  0  0  0  0  0
  1  2  1  0
  2  3  1  0
  3  4  1  0
  4  5  1  0
  3  6  1  0
  6  7  1  0
  6  8  2  0
  8  9  1  0
  9 10  1  0
  9 11  2  0
  9 12  1  6
  1 13  1  0
  1 14  1  0
  1 15  1  0
  2 16  1  0
  2 17  1  0
  4 18  1  0
  4 19  1  0
  5 20  1  0
  5 21  1  0
  5 22  1  0
  7 23  1  0
  7 24  1  0
  7 25  1  0
 10 26  1  0
 10 27  1  0
 10 28  1  0
M  END
$$$$
