A230_00_P8R_C5N7E_warhead
     RDKit          3D

 28 27  0  0  0  0  0  0  0  0999 V2000
   -2.7169   -1.4810    0.5270 C   0  0  0  0  0  0  0  0  0  0  0  0
   -1.9527   -0.7859   -0.5688 C   0  0  0  0  0  0  0  0  0  0  0  0
   -0.9368    0.0991   -0.0650 N   0  0  0  0  0  0  0  0  0  0  0  0
   -1.3493    1.2858    0.6278 C   0  0  0  0  0  0  0  0  0  0  0  0
   -2.0358    2.3073   -0.2528 C   0  0  0  0  0  0  0  0  0  0  0  0
    0.4399   -0.2473   -0.2773 C   0  0  0  0  0  0  0  0  0  0  0  0
    0.8384   -1.6376    0.0051 C   0  0  0  0  0  0  0  0  0  0  0  0
    1.3222    0.5700   -0.6915 N   0  0  0  0  0  0  0  0  0  0  0  0
    2.9629    0.0175   -0.9066 P   0  0  2  0  0  5  0  0  0  0  0  0
    3.8763    0.4474    0.6248 C   0  0  0  0  0  0  0  0  0  0  0  0
    3.5940    0.8041   -2.0253 O   0  0  0  0  0  0  0  0  0  0  0  0
    3.0476   -0.9054   -1.1065 R   0  0  0  0  0  0  0  0  0  0  0  0
   -3.8228   -1.4304    0.3043 H   0  0  0  0  0  0  0  0  0  0  0  0
   -2.6250   -0.9524    1.5088 H   0  0  0  0  0  0  0  0  0  0  0  0
   -2.4419   -2.5455    0.6578 H   0  0  0  0  0  0  0  0  0  0  0  0
   -2.6184   -0.2132   -1.2296 H   0  0  0  0  0  0  0  0  0  0  0  0
   -1.5039   -1.5996   -1.1915 H   0  0  0  0  0  0  0  0  0  0  0  0
   -1.9235    1.0927    1.5565 H   0  0  0  0  0  0  0  0  0  0  0  0
   -0.4028    1.7988    0.9705 H   0  0  0  0  0  0  0  0  0  0  0  0
   -2.8266    2.8292    0.3638 H   0  0  0  0  0  0  0  0  0  0  0  0
   -1.3618    3.1284   -0.5813 H   0  0  0  0  0  0  0  0  0  0  0  0
   -2.4561    1.8186   -1.1388 H   0  0  0  0  0  0  0  0  0  0  0  0
    1.3712   -2.0501   -0.8872 H   0  0  0  0  0  0  0  0  0  0  0  0
   -0.0375   -2.2946    0.1504 H   0  0  0  0  0  0  0  0  0  0  0  0
    1.4435   -1.7465    0.9442 H   0  0  0  0  0  0  0  0  0  0  0  0
    4.9569    0.3995    0.3743 H   0  0  0  0  0  0  0  0  0  0  0  0
    3.5725    1.5097    0.8504 H   0  0  0  0  0  0  0  0  0  0  0  0
    3.5864   -0.2185    1.4566 H   0  0  0  0  0  0  0  0  0  0  0  0
  1  2  1  0
  2  3  1  0
  3  4  1  0
  4  5  1  0
  3  6  1  0
  6  7  1  0
  6  8  2  0
  8  9  1  0
  9 10  1  0
  9 11  2  0
  9 12  1  6
  1 13  1  0
  1 14  1  0
  1 15  1  0
  2 16  1  0
  2 17  1  0
  4 18  1  0
  4 19  1  0
  5 20  1  0
  5 21  1  0
  5 22  1  0
  7 23  1  0
  7 24  1  0
  7 25  1  0
 10 26  1  0
 10 27  1  0
 10 28  1  0
M  END
$$$$
