A230_03_P8S_C5N7Z_warhead
     RDKit          3D

 28 27  0  0  0  0  0  0  0  0999 V2000
    0.1301    0.9535    2.2181 C   0  0  0  0  0  0  0  0  0  0  0  0
   -0.8128    1.0875    1.0734 C   0  0  0  0  0  0  0  0  0  0  0  0
   -0.7352    0.0189    0.0946 N   0  0  0  0  0  0  0  0  0  0  0  0
   -1.1622   -1.3215    0.4462 C   0  0  0  0  0  0  0  0  0  0  0  0
   -2.6601   -1.3917    0.6505 C   0  0  0  0  0  0  0  0  0  0  0  0
   -0.2605    0.3048   -1.2040 C   0  0  0  0  0  0  0  0  0  0  0  0
   -1.2567    0.9529   -2.1393 C   0  0  0  0  0  0  0  0  0  0  0  0
    0.8927    0.0853   -1.6802 N   0  0  0  0  0  0  0  0  0  0  0  0
    2.1424   -0.6312   -0.7925 P   0  0  1  0  0  5  0  0  0  0  0  0
    3.7230    0.2185   -0.8514 C   0  0  0  0  0  0  0  0  0  0  0  0
    1.8197   -1.2125    0.5277 O   0  0  0  0  0  0  0  0  0  0  0  0
    2.4011   -1.5176   -1.4288 R   0  0  0  0  0  0  0  0  0  0  0  0
    1.1509    1.1290    1.8347 H   0  0  0  0  0  0  0  0  0  0  0  0
    0.0167    0.0006    2.7672 H   0  0  0  0  0  0  0  0  0  0  0  0
   -0.0968    1.7715    2.9320 H   0  0  0  0  0  0  0  0  0  0  0  0
   -0.6705    2.0830    0.6063 H   0  0  0  0  0  0  0  0  0  0  0  0
   -1.8678    1.0716    1.4698 H   0  0  0  0  0  0  0  0  0  0  0  0
   -0.8005   -2.0852   -0.2396 H   0  0  0  0  0  0  0  0  0  0  0  0
   -0.7108   -1.5308    1.4603 H   0  0  0  0  0  0  0  0  0  0  0  0
   -3.0022   -0.6962    1.4375 H   0  0  0  0  0  0  0  0  0  0  0  0
   -2.8718   -2.4391    1.0120 H   0  0  0  0  0  0  0  0  0  0  0  0
   -3.1586   -1.2642   -0.3230 H   0  0  0  0  0  0  0  0  0  0  0  0
   -0.9332    1.9756   -2.3908 H   0  0  0  0  0  0  0  0  0  0  0  0
   -2.2753    0.9375   -1.7518 H   0  0  0  0  0  0  0  0  0  0  0  0
   -1.2835    0.3886   -3.1008 H   0  0  0  0  0  0  0  0  0  0  0  0
    4.4524   -0.3881   -0.2801 H   0  0  0  0  0  0  0  0  0  0  0  0
    4.1183    0.2758   -1.8996 H   0  0  0  0  0  0  0  0  0  0  0  0
    3.7110    1.2235   -0.4485 H   0  0  0  0  0  0  0  0  0  0  0  0
  1  2  1  0
  2  3  1  0
  3  4  1  0
  4  5  1  0
  3  6  1  0
  6  7  1  0
  6  8  2  0
  8  9  1  0
  9 10  1  0
  9 11  2  0
  9 12  1  6
  1 13  1  0
  1 14  1  0
  1 15  1  0
  2 16  1  0
  2 17  1  0
  4 18  1  0
  4 19  1  0
  5 20  1  0
  5 21  1  0
  5 22  1  0
  7 23  1  0
  7 24  1  0
  7 25  1  0
 10 26  1  0
 10 27  1  0
 10 28  1  0
M  END
$$$$
