A232_02_P8R_C5N7Z_warhead
     RDKit          3D

 29 28  0  0  0  0  0  0  0  0999 V2000
   -1.2491   -1.6605    1.4750 C   0  0  0  0  0  0  0  0  0  0  0  0
   -1.7734   -0.3288    0.9946 C   0  0  0  0  0  0  0  0  0  0  0  0
   -1.1970    0.0217   -0.2921 N   0  0  0  0  0  0  0  0  0  0  0  0
   -1.6586    1.2737   -0.8873 C   0  0  0  0  0  0  0  0  0  0  0  0
   -1.2114    2.4909   -0.1246 C   0  0  0  0  0  0  0  0  0  0  0  0
   -0.2392   -0.7703   -0.9697 C   0  0  0  0  0  0  0  0  0  0  0  0
   -0.7128   -1.5219   -2.1706 C   0  0  0  0  0  0  0  0  0  0  0  0
    0.9884   -0.8951   -0.6467 N   0  0  0  0  0  0  0  0  0  0  0  0
    1.6104   -0.0498    0.7318 P   0  0  2  0  0  5  0  0  0  0  0  0
    1.8307    1.4038    0.3366 O   0  0  0  0  0  0  0  0  0  0  0  0
    3.1307   -0.7136    1.0955 O   0  0  0  0  0  0  0  0  0  0  0  0
    4.1337    0.0700    0.5255 C   0  0  0  0  0  0  0  0  0  0  0  0
    1.0207   -0.1165    1.4568 R   0  0  0  0  0  0  0  0  0  0  0  0
   -0.7165   -2.1579    0.6313 H   0  0  0  0  0  0  0  0  0  0  0  0
   -0.6336   -1.5061    2.3708 H   0  0  0  0  0  0  0  0  0  0  0  0
   -2.1276   -2.3054    1.7543 H   0  0  0  0  0  0  0  0  0  0  0  0
   -2.8801   -0.3762    0.9313 H   0  0  0  0  0  0  0  0  0  0  0  0
   -1.5548    0.4545    1.7578 H   0  0  0  0  0  0  0  0  0  0  0  0
   -1.2327    1.3619   -1.9245 H   0  0  0  0  0  0  0  0  0  0  0  0
   -2.7721    1.2532   -0.9698 H   0  0  0  0  0  0  0  0  0  0  0  0
   -0.7529    2.1705    0.8356 H   0  0  0  0  0  0  0  0  0  0  0  0
   -0.4419    3.0458   -0.6858 H   0  0  0  0  0  0  0  0  0  0  0  0
   -2.0969    3.1368    0.0563 H   0  0  0  0  0  0  0  0  0  0  0  0
   -0.1047   -2.4229   -2.3246 H   0  0  0  0  0  0  0  0  0  0  0  0
   -0.7202   -0.8400   -3.0491 H   0  0  0  0  0  0  0  0  0  0  0  0
   -1.7721   -1.8499   -1.9723 H   0  0  0  0  0  0  0  0  0  0  0  0
    3.7388    1.0871    0.3639 H   0  0  0  0  0  0  0  0  0  0  0  0
    4.3854   -0.3659   -0.4753 H   0  0  0  0  0  0  0  0  0  0  0  0
    5.0087    0.1110    1.1755 H   0  0  0  0  0  0  0  0  0  0  0  0
  1  2  1  0
  2  3  1  0
  3  4  1  0
  4  5  1  0
  3  6  1  0
  6  7  1  0
  6  8  2  0
  8  9  1  0
  9 10  2  0
  9 11  1  0
 11 12  1  0
  9 13  1  1
  1 14  1  0
  1 15  1  0
  1 16  1  0
  2 17  1  0
  2 18  1  0
  4 19  1  0
  4 20  1  0
  5 21  1  0
  5 22  1  0
  5 23  1  0
  7 24  1  0
  7 25  1  0
  7 26  1  0
 12 27  1  0
 12 28  1  0
 12 29  1  0
M  END
$$$$
