A232_03_P8S_C5N7Z_warhead
     RDKit          3D

 29 28  0  0  0  0  0  0  0  0999 V2000
   -0.2533    1.9050    1.5047 C   0  0  0  0  0  0  0  0  0  0  0  0
   -0.8392    1.8036    0.1410 C   0  0  0  0  0  0  0  0  0  0  0  0
   -1.0426    0.4156   -0.3066 N   0  0  0  0  0  0  0  0  0  0  0  0
   -2.0468   -0.3350    0.3835 C   0  0  0  0  0  0  0  0  0  0  0  0
   -2.2597   -1.7344   -0.0604 C   0  0  0  0  0  0  0  0  0  0  0  0
   -0.2993   -0.1587   -1.3590 C   0  0  0  0  0  0  0  0  0  0  0  0
   -0.8694   -0.0122   -2.7428 C   0  0  0  0  0  0  0  0  0  0  0  0
    0.8027   -0.7924   -1.2642 N   0  0  0  0  0  0  0  0  0  0  0  0
    1.5614   -1.0354    0.2652 P   0  0  1  0  0  5  0  0  0  0  0  0
    2.5282   -2.2125    0.0439 O   0  0  0  0  0  0  0  0  0  0  0  0
    2.5476    0.2706    0.7401 O   0  0  0  0  0  0  0  0  0  0  0  0
    3.8361   -0.1620    1.0864 C   0  0  0  0  0  0  0  0  0  0  0  0
    0.9607   -1.2429    0.9897 R   0  0  0  0  0  0  0  0  0  0  0  0
   -0.8428    2.6498    2.1104 H   0  0  0  0  0  0  0  0  0  0  0  0
   -0.2020    0.9532    2.0674 H   0  0  0  0  0  0  0  0  0  0  0  0
    0.8011    2.2593    1.4176 H   0  0  0  0  0  0  0  0  0  0  0  0
   -1.8620    2.2769    0.1191 H   0  0  0  0  0  0  0  0  0  0  0  0
   -0.2330    2.3088   -0.6389 H   0  0  0  0  0  0  0  0  0  0  0  0
   -1.8082   -0.3126    1.4736 H   0  0  0  0  0  0  0  0  0  0  0  0
   -3.0230    0.2227    0.2964 H   0  0  0  0  0  0  0  0  0  0  0  0
   -1.3752   -2.1403   -0.5915 H   0  0  0  0  0  0  0  0  0  0  0  0
   -3.1817   -1.7926   -0.6865 H   0  0  0  0  0  0  0  0  0  0  0  0
   -2.5097   -2.3509    0.8396 H   0  0  0  0  0  0  0  0  0  0  0  0
   -0.0639   -0.0046   -3.5070 H   0  0  0  0  0  0  0  0  0  0  0  0
   -1.4738   -0.9214   -2.9594 H   0  0  0  0  0  0  0  0  0  0  0  0
   -1.4394    0.9248   -2.8448 H   0  0  0  0  0  0  0  0  0  0  0  0
    4.0976   -1.0774    0.4999 H   0  0  0  0  0  0  0  0  0  0  0  0
    4.6067    0.6119    0.8135 H   0  0  0  0  0  0  0  0  0  0  0  0
    3.8830   -0.3170    2.1692 H   0  0  0  0  0  0  0  0  0  0  0  0
  1  2  1  0
  2  3  1  0
  3  4  1  0
  4  5  1  0
  3  6  1  0
  6  7  1  0
  6  8  2  0
  8  9  1  0
  9 10  2  0
  9 11  1  0
 11 12  1  0
  9 13  1  1
  1 14  1  0
  1 15  1  0
  1 16  1  0
  2 17  1  0
  2 18  1  0
  4 19  1  0
  4 20  1  0
  5 21  1  0
  5 22  1  0
  5 23  1  0
  7 24  1  0
  7 25  1  0
  7 26  1  0
 12 27  1  0
 12 28  1  0
 12 29  1  0
M  END
$$$$
