A232_00_P8R_C5N7E_warhead
     RDKit          3D

 29 28  0  0  0  0  0  0  0  0999 V2000
   -1.4501    2.4693   -0.4546 C   0  0  0  0  0  0  0  0  0  0  0  0
   -1.1380    1.4241    0.5821 C   0  0  0  0  0  0  0  0  0  0  0  0
   -1.1126    0.0753    0.0733 N   0  0  0  0  0  0  0  0  0  0  0  0
   -2.3481   -0.5135   -0.3676 C   0  0  0  0  0  0  0  0  0  0  0  0
   -3.3033   -0.7714    0.7811 C   0  0  0  0  0  0  0  0  0  0  0  0
    0.1034   -0.6671    0.0088 C   0  0  0  0  0  0  0  0  0  0  0  0
    0.0610   -2.1179    0.3212 C   0  0  0  0  0  0  0  0  0  0  0  0
    1.2360   -0.1439   -0.3059 N   0  0  0  0  0  0  0  0  0  0  0  0
    2.7174   -1.0702   -0.3795 P   0  0  2  0  0  5  0  0  0  0  0  0
    3.2898   -1.2453    1.0220 O   0  0  0  0  0  0  0  0  0  0  0  0
    3.8368   -0.1241   -1.2517 O   0  0  0  0  0  0  0  0  0  0  0  0
    4.3299    0.9291   -0.4767 C   0  0  0  0  0  0  0  0  0  0  0  0
    2.6519   -1.8947   -0.7764 R   0  0  0  0  0  0  0  0  0  0  0  0
   -1.9300    2.0890   -1.3627 H   0  0  0  0  0  0  0  0  0  0  0  0
   -0.5408    3.0328   -0.7445 H   0  0  0  0  0  0  0  0  0  0  0  0
   -2.1457    3.2089    0.0171 H   0  0  0  0  0  0  0  0  0  0  0  0
   -1.8447    1.4564    1.4285 H   0  0  0  0  0  0  0  0  0  0  0  0
   -0.1290    1.6553    1.0190 H   0  0  0  0  0  0  0  0  0  0  0  0
   -2.1683   -1.4805   -0.8619 H   0  0  0  0  0  0  0  0  0  0  0  0
   -2.8372    0.1185   -1.1601 H   0  0  0  0  0  0  0  0  0  0  0  0
   -3.1487   -0.0889    1.6306 H   0  0  0  0  0  0  0  0  0  0  0  0
   -4.3292   -0.6716    0.3618 H   0  0  0  0  0  0  0  0  0  0  0  0
   -3.2337   -1.8175    1.1422 H   0  0  0  0  0  0  0  0  0  0  0  0
   -0.8149   -2.3002    0.9875 H   0  0  0  0  0  0  0  0  0  0  0  0
   -0.1148   -2.7472   -0.5894 H   0  0  0  0  0  0  0  0  0  0  0  0
    0.9626   -2.4765    0.8442 H   0  0  0  0  0  0  0  0  0  0  0  0
    3.8895    1.8944   -0.7879 H   0  0  0  0  0  0  0  0  0  0  0  0
    5.4249    0.9999   -0.5599 H   0  0  0  0  0  0  0  0  0  0  0  0
    4.0857    0.7777    0.6069 H   0  0  0  0  0  0  0  0  0  0  0  0
  1  2  1  0
  2  3  1  0
  3  4  1  0
  4  5  1  0
  3  6  1  0
  6  7  1  0
  6  8  2  0
  8  9  1  0
  9 10  2  0
  9 11  1  0
 11 12  1  0
  9 13  1  6
  1 14  1  0
  1 15  1  0
  1 16  1  0
  2 17  1  0
  2 18  1  0
  4 19  1  0
  4 20  1  0
  5 21  1  0
  5 22  1  0
  5 23  1  0
  7 24  1  0
  7 25  1  0
  7 26  1  0
 12 27  1  0
 12 28  1  0
 12 29  1  0
M  END
$$$$
