A232_01_P8S_C5N7E_warhead
     RDKit          3D

 29 28  0  0  0  0  0  0  0  0999 V2000
   -1.5674    2.5161   -0.3784 C   0  0  0  0  0  0  0  0  0  0  0  0
   -1.3131    1.4135    0.6167 C   0  0  0  0  0  0  0  0  0  0  0  0
   -1.0989    0.1169    0.0399 N   0  0  0  0  0  0  0  0  0  0  0  0
   -2.2160   -0.5423   -0.6152 C   0  0  0  0  0  0  0  0  0  0  0  0
   -3.2950   -0.9692    0.3685 C   0  0  0  0  0  0  0  0  0  0  0  0
    0.1472   -0.5687    0.0728 C   0  0  0  0  0  0  0  0  0  0  0  0
    0.1400   -1.9353    0.6664 C   0  0  0  0  0  0  0  0  0  0  0  0
    1.2481   -0.0838   -0.3762 N   0  0  0  0  0  0  0  0  0  0  0  0
    2.6863   -1.0604   -0.2588 P   0  0  1  0  0  5  0  0  0  0  0  0
    3.0835   -1.6020   -1.6118 O   0  0  0  0  0  0  0  0  0  0  0  0
    3.9731   -0.2765    0.4765 O   0  0  0  0  0  0  0  0  0  0  0  0
    4.3587    0.8841   -0.1582 C   0  0  0  0  0  0  0  0  0  0  0  0
    2.5196   -1.8733    0.2934 R   0  0  0  0  0  0  0  0  0  0  0  0
   -2.1241    2.1995   -1.2579 H   0  0  0  0  0  0  0  0  0  0  0  0
   -0.6251    3.0371   -0.7036 H   0  0  0  0  0  0  0  0  0  0  0  0
   -2.1847    3.3129    0.1188 H   0  0  0  0  0  0  0  0  0  0  0  0
   -2.0772    1.4273    1.4152 H   0  0  0  0  0  0  0  0  0  0  0  0
   -0.3474    1.6964    1.1371 H   0  0  0  0  0  0  0  0  0  0  0  0
   -1.8758   -1.4591   -1.1201 H   0  0  0  0  0  0  0  0  0  0  0  0
   -2.6515    0.1239   -1.3839 H   0  0  0  0  0  0  0  0  0  0  0  0
   -3.3976   -0.2392    1.1808 H   0  0  0  0  0  0  0  0  0  0  0  0
   -4.2480   -1.0649   -0.2107 H   0  0  0  0  0  0  0  0  0  0  0  0
   -3.0396   -1.9501    0.8211 H   0  0  0  0  0  0  0  0  0  0  0  0
   -0.5607   -1.9238    1.5344 H   0  0  0  0  0  0  0  0  0  0  0  0
   -0.1934   -2.6900   -0.0604 H   0  0  0  0  0  0  0  0  0  0  0  0
    1.1567   -2.1550    1.0402 H   0  0  0  0  0  0  0  0  0  0  0  0
    3.5030    1.5104   -0.5103 H   0  0  0  0  0  0  0  0  0  0  0  0
    5.0716    0.6565   -0.9704 H   0  0  0  0  0  0  0  0  0  0  0  0
    4.9278    1.4992    0.5815 H   0  0  0  0  0  0  0  0  0  0  0  0
  1  2  1  0
  2  3  1  0
  3  4  1  0
  4  5  1  0
  3  6  1  0
  6  7  1  0
  6  8  2  0
  8  9  1  0
  9 10  2  0
  9 11  1  0
 11 12  1  0
  9 13  1  1
  1 14  1  0
  1 15  1  0
  1 16  1  0
  2 17  1  0
  2 18  1  0
  4 19  1  0
  4 20  1  0
  5 21  1  0
  5 22  1  0
  5 23  1  0
  7 24  1  0
  7 25  1  0
  7 26  1  0
 12 27  1  0
 12 28  1  0
 12 29  1  0
M  END
$$$$
