A234_03_P3R_N6C7Z_warhead
     RDKit          3D

 32 31  0  0  0  0  0  0  0  0999 V2000
    4.8527   -0.5030   -0.0533 C   0  0  0  0  0  0  0  0  0  0  0  0
    3.3807   -0.6097   -0.2669 C   0  0  0  0  0  0  0  0  0  0  0  0
    2.8324    0.6755   -0.4399 O   0  0  0  0  0  0  0  0  0  0  0  0
    1.1351    0.4545   -0.6412 P   0  0  1  0  0  5  0  0  0  0  0  0
    0.8679   -0.6911   -1.5467 O   0  0  0  0  0  0  0  0  0  0  0  0
    0.4467    0.3643    0.9252 N   0  0  0  0  0  0  0  0  0  0  0  0
   -0.7704    0.2385    1.2675 C   0  0  0  0  0  0  0  0  0  0  0  0
   -1.1081    0.1850    2.7093 C   0  0  0  0  0  0  0  0  0  0  0  0
   -1.7506    0.1415    0.2327 N   0  0  0  0  0  0  0  0  0  0  0  0
   -2.5405   -1.0989    0.2601 C   0  0  0  0  0  0  0  0  0  0  0  0
   -2.2264   -2.0770   -0.8231 C   0  0  0  0  0  0  0  0  0  0  0  0
   -1.9485    1.1519   -0.7815 C   0  0  0  0  0  0  0  0  0  0  0  0
   -1.2832    2.4709   -0.4768 C   0  0  0  0  0  0  0  0  0  0  0  0
    0.8410    1.3261   -1.0331 R   0  0  0  0  0  0  0  0  0  0  0  0
    5.1229   -0.3312    1.0129 H   0  0  0  0  0  0  0  0  0  0  0  0
    5.3351   -1.4197   -0.4250 H   0  0  0  0  0  0  0  0  0  0  0  0
    5.2566    0.3544   -0.6343 H   0  0  0  0  0  0  0  0  0  0  0  0
    3.1834   -1.1549   -1.2042 H   0  0  0  0  0  0  0  0  0  0  0  0
    2.9337   -1.0956    0.6187 H   0  0  0  0  0  0  0  0  0  0  0  0
   -1.3766    1.1719    3.1291 H   0  0  0  0  0  0  0  0  0  0  0  0
   -0.2679   -0.2342    3.2863 H   0  0  0  0  0  0  0  0  0  0  0  0
   -1.9627   -0.4839    2.9164 H   0  0  0  0  0  0  0  0  0  0  0  0
   -2.5855   -1.5409    1.2792 H   0  0  0  0  0  0  0  0  0  0  0  0
   -3.6381   -0.8073    0.0733 H   0  0  0  0  0  0  0  0  0  0  0  0
   -2.7687   -3.0335   -0.5402 H   0  0  0  0  0  0  0  0  0  0  0  0
   -1.1450   -2.2937   -0.9169 H   0  0  0  0  0  0  0  0  0  0  0  0
   -2.6181   -1.8271   -1.8218 H   0  0  0  0  0  0  0  0  0  0  0  0
   -1.6023    0.7016   -1.7503 H   0  0  0  0  0  0  0  0  0  0  0  0
   -3.0341    1.3466   -0.9010 H   0  0  0  0  0  0  0  0  0  0  0  0
   -0.7100    2.7898   -1.3680 H   0  0  0  0  0  0  0  0  0  0  0  0
   -2.0774    3.2927   -0.4003 H   0  0  0  0  0  0  0  0  0  0  0  0
   -0.7741    2.5367    0.4869 H   0  0  0  0  0  0  0  0  0  0  0  0
  1  2  1  0
  2  3  1  0
  3  4  1  0
  4  5  2  0
  4  6  1  0
  6  7  2  0
  7  8  1  0
  7  9  1  0
  9 10  1  0
 10 11  1  0
  9 12  1  0
 12 13  1  0
  4 14  1  6
  1 15  1  0
  1 16  1  0
  1 17  1  0
  2 18  1  0
  2 19  1  0
  8 20  1  0
  8 21  1  0
  8 22  1  0
 10 23  1  0
 10 24  1  0
 11 25  1  0
 11 26  1  0
 11 27  1  0
 12 28  1  0
 12 29  1  0
 13 30  1  0
 13 31  1  0
 13 32  1  0
M  END
$$$$
