A234_00_P3S_N6C7E_warhead
     RDKit          3D

 32 31  0  0  0  0  0  0  0  0999 V2000
    5.7683    0.5242    0.9701 C   0  0  0  0  0  0  0  0  0  0  0  0
    4.5090    0.3911    0.1789 C   0  0  0  0  0  0  0  0  0  0  0  0
    3.3493    0.6092    0.9538 O   0  0  0  0  0  0  0  0  0  0  0  0
    2.0619    0.4876   -0.0981 P   0  0  2  0  0  5  0  0  0  0  0  0
    2.0871    1.6278   -1.0975 O   0  0  0  0  0  0  0  0  0  0  0  0
    0.5010    0.5035    0.7018 N   0  0  0  0  0  0  0  0  0  0  0  0
   -0.4852    0.0751   -0.0132 C   0  0  0  0  0  0  0  0  0  0  0  0
   -0.2681   -0.3931   -1.4281 C   0  0  0  0  0  0  0  0  0  0  0  0
   -1.8290    0.0008    0.4561 N   0  0  0  0  0  0  0  0  0  0  0  0
   -2.2615   -1.3009    0.9660 C   0  0  0  0  0  0  0  0  0  0  0  0
   -3.2759   -1.9663    0.0679 C   0  0  0  0  0  0  0  0  0  0  0  0
   -2.6992    1.1493    0.4180 C   0  0  0  0  0  0  0  0  0  0  0  0
   -3.8274    1.0397   -0.5576 C   0  0  0  0  0  0  0  0  0  0  0  0
    2.1367   -0.3816   -0.6119 R   0  0  0  0  0  0  0  0  0  0  0  0
    6.5880    0.7732    0.2614 H   0  0  0  0  0  0  0  0  0  0  0  0
    5.7223    1.3593    1.7103 H   0  0  0  0  0  0  0  0  0  0  0  0
    6.0461   -0.4346    1.4421 H   0  0  0  0  0  0  0  0  0  0  0  0
    4.4369   -0.6465   -0.2000 H   0  0  0  0  0  0  0  0  0  0  0  0
    4.4415    1.1096   -0.6610 H   0  0  0  0  0  0  0  0  0  0  0  0
   -0.4671   -1.4884   -1.4094 H   0  0  0  0  0  0  0  0  0  0  0  0
    0.8047   -0.2755   -1.7112 H   0  0  0  0  0  0  0  0  0  0  0  0
   -0.9448    0.1176   -2.1397 H   0  0  0  0  0  0  0  0  0  0  0  0
   -2.6736   -1.0995    1.9764 H   0  0  0  0  0  0  0  0  0  0  0  0
   -1.4079   -1.9824    1.0780 H   0  0  0  0  0  0  0  0  0  0  0  0
   -3.0440   -3.0349   -0.1177 H   0  0  0  0  0  0  0  0  0  0  0  0
   -3.3586   -1.5035   -0.9388 H   0  0  0  0  0  0  0  0  0  0  0  0
   -4.2757   -1.9150    0.5389 H   0  0  0  0  0  0  0  0  0  0  0  0
   -2.0686    2.0311    0.1296 H   0  0  0  0  0  0  0  0  0  0  0  0
   -3.1349    1.3809    1.4301 H   0  0  0  0  0  0  0  0  0  0  0  0
   -4.6335    0.3674   -0.2017 H   0  0  0  0  0  0  0  0  0  0  0  0
   -4.3116    2.0578   -0.5731 H   0  0  0  0  0  0  0  0  0  0  0  0
   -3.4862    0.8169   -1.5631 H   0  0  0  0  0  0  0  0  0  0  0  0
  1  2  1  0
  2  3  1  0
  3  4  1  0
  4  5  2  0
  4  6  1  0
  6  7  2  0
  7  8  1  0
  7  9  1  0
  9 10  1  0
 10 11  1  0
  9 12  1  0
 12 13  1  0
  4 14  1  6
  1 15  1  0
  1 16  1  0
  1 17  1  0
  2 18  1  0
  2 19  1  0
  8 20  1  0
  8 21  1  0
  8 22  1  0
 10 23  1  0
 10 24  1  0
 11 25  1  0
 11 26  1  0
 11 27  1  0
 12 28  1  0
 12 29  1  0
 13 30  1  0
 13 31  1  0
 13 32  1  0
M  END
$$$$
