A234_02_P3S_N6C7Z_warhead
     RDKit          3D

 32 31  0  0  0  0  0  0  0  0999 V2000
    4.9332   -0.8542   -0.4794 C   0  0  0  0  0  0  0  0  0  0  0  0
    3.4267   -0.6830   -0.7023 C   0  0  0  0  0  0  0  0  0  0  0  0
    3.0839    0.4778   -0.0357 O   0  0  0  0  0  0  0  0  0  0  0  0
    1.4168    0.8483   -0.2133 P   0  0  2  0  0  5  0  0  0  0  0  0
    1.3971    2.3927   -0.1462 O   0  0  0  0  0  0  0  0  0  0  0  0
    0.6533    0.2815    1.2398 N   0  0  0  0  0  0  0  0  0  0  0  0
   -0.5941    0.0245    1.3056 C   0  0  0  0  0  0  0  0  0  0  0  0
   -1.0785   -0.4624    2.6574 C   0  0  0  0  0  0  0  0  0  0  0  0
   -1.5376    0.1407    0.2827 N   0  0  0  0  0  0  0  0  0  0  0  0
   -2.5930   -0.8954    0.2419 C   0  0  0  0  0  0  0  0  0  0  0  0
   -2.4918   -1.8073   -0.9253 C   0  0  0  0  0  0  0  0  0  0  0  0
   -1.6158    1.1498   -0.7378 C   0  0  0  0  0  0  0  0  0  0  0  0
   -1.7742    2.5412   -0.1061 C   0  0  0  0  0  0  0  0  0  0  0  0
    1.1255    0.5884   -0.9928 R   0  0  0  0  0  0  0  0  0  0  0  0
    5.1009   -0.7232    0.6208 H   0  0  0  0  0  0  0  0  0  0  0  0
    5.3149   -1.7968   -0.8738 H   0  0  0  0  0  0  0  0  0  0  0  0
    5.4169    0.0349   -0.9492 H   0  0  0  0  0  0  0  0  0  0  0  0
    3.1729   -0.6618   -1.7674 H   0  0  0  0  0  0  0  0  0  0  0  0
    2.9345   -1.5274   -0.1519 H   0  0  0  0  0  0  0  0  0  0  0  0
   -2.0108    0.0505    2.9307 H   0  0  0  0  0  0  0  0  0  0  0  0
   -0.3338   -0.3020    3.4377 H   0  0  0  0  0  0  0  0  0  0  0  0
   -1.1910   -1.5724    2.5787 H   0  0  0  0  0  0  0  0  0  0  0  0
   -2.7008   -1.4157    1.2128 H   0  0  0  0  0  0  0  0  0  0  0  0
   -3.5939   -0.3692    0.1297 H   0  0  0  0  0  0  0  0  0  0  0  0
   -2.7961   -2.8400   -0.5717 H   0  0  0  0  0  0  0  0  0  0  0  0
   -1.5035   -1.8679   -1.3994 H   0  0  0  0  0  0  0  0  0  0  0  0
   -3.2351   -1.6004   -1.7378 H   0  0  0  0  0  0  0  0  0  0  0  0
   -0.8459    1.1238   -1.5153 H   0  0  0  0  0  0  0  0  0  0  0  0
   -2.5730    1.0519   -1.3456 H   0  0  0  0  0  0  0  0  0  0  0  0
   -1.2395    3.3035   -0.7057 H   0  0  0  0  0  0  0  0  0  0  0  0
   -2.8325    2.8639   -0.0609 H   0  0  0  0  0  0  0  0  0  0  0  0
   -1.4357    2.5057    0.9529 H   0  0  0  0  0  0  0  0  0  0  0  0
  1  2  1  0
  2  3  1  0
  3  4  1  0
  4  5  2  0
  4  6  1  0
  6  7  2  0
  7  8  1  0
  7  9  1  0
  9 10  1  0
 10 11  1  0
  9 12  1  0
 12 13  1  0
  4 14  1  6
  1 15  1  0
  1 16  1  0
  1 17  1  0
  2 18  1  0
  2 19  1  0
  8 20  1  0
  8 21  1  0
  8 22  1  0
 10 23  1  0
 10 24  1  0
 11 25  1  0
 11 26  1  0
 11 27  1  0
 12 28  1  0
 12 29  1  0
 13 30  1  0
 13 31  1  0
 13 32  1  0
M  END
$$$$
