A234_01_P3R_N6C7E_warhead
     RDKit          3D

 32 31  0  0  0  0  0  0  0  0999 V2000
    4.4205    0.7645    0.6412 C   0  0  0  0  0  0  0  0  0  0  0  0
    3.4698   -0.1159   -0.1554 C   0  0  0  0  0  0  0  0  0  0  0  0
    2.5731    0.7217   -0.8129 O   0  0  0  0  0  0  0  0  0  0  0  0
    1.4458   -0.0872   -1.7452 P   0  0  1  0  0  5  0  0  0  0  0  0
    1.7497   -1.5597   -1.8898 O   0  0  0  0  0  0  0  0  0  0  0  0
   -0.2012    0.2260   -1.3169 N   0  0  0  0  0  0  0  0  0  0  0  0
   -0.7478   -0.1632   -0.2138 C   0  0  0  0  0  0  0  0  0  0  0  0
    0.0760   -0.9306    0.7625 C   0  0  0  0  0  0  0  0  0  0  0  0
   -2.0972    0.1174    0.0901 N   0  0  0  0  0  0  0  0  0  0  0  0
   -2.5840    1.4341    0.4687 C   0  0  0  0  0  0  0  0  0  0  0  0
   -1.5008    2.4739    0.5052 C   0  0  0  0  0  0  0  0  0  0  0  0
   -3.0609   -0.9727    0.0214 C   0  0  0  0  0  0  0  0  0  0  0  0
   -2.4288   -2.2769   -0.3802 C   0  0  0  0  0  0  0  0  0  0  0  0
    1.5361    0.2920   -2.6897 R   0  0  0  0  0  0  0  0  0  0  0  0
    4.7949    1.5636   -0.0503 H   0  0  0  0  0  0  0  0  0  0  0  0
    3.8451    1.2602    1.4464 H   0  0  0  0  0  0  0  0  0  0  0  0
    5.2821    0.2045    1.0482 H   0  0  0  0  0  0  0  0  0  0  0  0
    2.9667   -0.7815    0.5764 H   0  0  0  0  0  0  0  0  0  0  0  0
    4.0800   -0.7399   -0.8450 H   0  0  0  0  0  0  0  0  0  0  0  0
    0.7337   -0.2265    1.3486 H   0  0  0  0  0  0  0  0  0  0  0  0
    0.7349   -1.6141    0.2167 H   0  0  0  0  0  0  0  0  0  0  0  0
   -0.5463   -1.4258    1.5265 H   0  0  0  0  0  0  0  0  0  0  0  0
   -3.3641    1.7935   -0.2246 H   0  0  0  0  0  0  0  0  0  0  0  0
   -2.9934    1.3233    1.5005 H   0  0  0  0  0  0  0  0  0  0  0  0
   -1.9502    3.3668    0.9946 H   0  0  0  0  0  0  0  0  0  0  0  0
   -0.6130    2.1983    1.0878 H   0  0  0  0  0  0  0  0  0  0  0  0
   -1.2717    2.7898   -0.5444 H   0  0  0  0  0  0  0  0  0  0  0  0
   -3.8335   -0.6732   -0.7363 H   0  0  0  0  0  0  0  0  0  0  0  0
   -3.5750   -1.0169    0.9981 H   0  0  0  0  0  0  0  0  0  0  0  0
   -3.1851   -2.8143   -1.0214 H   0  0  0  0  0  0  0  0  0  0  0  0
   -1.5088   -2.1651   -0.9669 H   0  0  0  0  0  0  0  0  0  0  0  0
   -2.2468   -2.9662    0.4765 H   0  0  0  0  0  0  0  0  0  0  0  0
  1  2  1  0
  2  3  1  0
  3  4  1  0
  4  5  2  0
  4  6  1  0
  6  7  2  0
  7  8  1  0
  7  9  1  0
  9 10  1  0
 10 11  1  0
  9 12  1  0
 12 13  1  0
  4 14  1  6
  1 15  1  0
  1 16  1  0
  1 17  1  0
  2 18  1  0
  2 19  1  0
  8 20  1  0
  8 21  1  0
  8 22  1  0
 10 23  1  0
 10 24  1  0
 11 25  1  0
 11 26  1  0
 11 27  1  0
 12 28  1  0
 12 29  1  0
 13 30  1  0
 13 31  1  0
 13 32  1  0
M  END
$$$$
