A242_00_P7R_warhead
     RDKit          3D

 39 38  0  0  0  0  0  0  0  0999 V2000
   -1.4690   -1.3600   -1.9848 C   0  0  0  0  0  0  0  0  0  0  0  0
   -1.7733   -1.6260   -0.5539 C   0  0  0  0  0  0  0  0  0  0  0  0
   -1.0352   -0.8235    0.3932 N   0  0  0  0  0  0  0  0  0  0  0  0
   -1.3334   -1.0831    1.8136 C   0  0  0  0  0  0  0  0  0  0  0  0
   -0.8787   -2.4321    2.2616 C   0  0  0  0  0  0  0  0  0  0  0  0
   -0.0868    0.1642    0.0313 C   0  0  0  0  0  0  0  0  0  0  0  0
   -0.4422    1.4085    0.0238 N   0  0  0  0  0  0  0  0  0  0  0  0
   -2.0675    1.8950    0.4509 P   0  0  2  0  0  5  0  0  0  0  0  0
   -2.4450    3.4325   -0.4129 C   0  0  0  0  0  0  0  0  0  0  0  0
   -2.1977    2.0888    1.9613 O   0  0  0  0  0  0  0  0  0  0  0  0
    1.2611   -0.1106   -0.3280 N   0  0  0  0  0  0  0  0  0  0  0  0
    2.1438   -0.7321    0.6130 C   0  0  0  0  0  0  0  0  0  0  0  0
    3.2421    0.1176    1.1307 C   0  0  0  0  0  0  0  0  0  0  0  0
    1.7771    0.2257   -1.6301 C   0  0  0  0  0  0  0  0  0  0  0  0
    2.7931    1.3219   -1.6573 C   0  0  0  0  0  0  0  0  0  0  0  0
   -2.6727    1.1992    0.1481 R   0  0  0  0  0  0  0  0  0  0  0  0
   -1.8211   -0.3446   -2.3198 H   0  0  0  0  0  0  0  0  0  0  0  0
   -0.4195   -1.5314   -2.2413 H   0  0  0  0  0  0  0  0  0  0  0  0
   -2.0454   -2.0841   -2.6253 H   0  0  0  0  0  0  0  0  0  0  0  0
   -1.6237   -2.7186   -0.3805 H   0  0  0  0  0  0  0  0  0  0  0  0
   -2.8564   -1.3899   -0.3773 H   0  0  0  0  0  0  0  0  0  0  0  0
   -0.9055   -0.2951    2.4390 H   0  0  0  0  0  0  0  0  0  0  0  0
   -2.4435   -1.0246    1.9236 H   0  0  0  0  0  0  0  0  0  0  0  0
   -0.1756   -2.3423    3.1274 H   0  0  0  0  0  0  0  0  0  0  0  0
   -0.3370   -2.9956    1.4638 H   0  0  0  0  0  0  0  0  0  0  0  0
   -1.7424   -3.0721    2.5700 H   0  0  0  0  0  0  0  0  0  0  0  0
   -1.6977    4.2042   -0.1981 H   0  0  0  0  0  0  0  0  0  0  0  0
   -2.4794    3.2245   -1.5035 H   0  0  0  0  0  0  0  0  0  0  0  0
   -3.4601    3.7675   -0.0693 H   0  0  0  0  0  0  0  0  0  0  0  0
    2.6369   -1.5961    0.0726 H   0  0  0  0  0  0  0  0  0  0  0  0
    1.5597   -1.1321    1.4637 H   0  0  0  0  0  0  0  0  0  0  0  0
    4.1933   -0.0202    0.5475 H   0  0  0  0  0  0  0  0  0  0  0  0
    3.5054   -0.2655    2.1546 H   0  0  0  0  0  0  0  0  0  0  0  0
    2.9810    1.1719    1.3043 H   0  0  0  0  0  0  0  0  0  0  0  0
    2.1875   -0.6540   -2.1641 H   0  0  0  0  0  0  0  0  0  0  0  0
    0.9279    0.5805   -2.2759 H   0  0  0  0  0  0  0  0  0  0  0  0
    3.8279    0.8900   -1.6471 H   0  0  0  0  0  0  0  0  0  0  0  0
    2.6158    2.0838   -0.8832 H   0  0  0  0  0  0  0  0  0  0  0  0
    2.7558    1.8576   -2.6417 H   0  0  0  0  0  0  0  0  0  0  0  0
  1  2  1  0
  2  3  1  0
  3  4  1  0
  4  5  1  0
  3  6  1  0
  6  7  2  3
  7  8  1  0
  8  9  1  0
  8 10  2  0
  6 11  1  0
 11 12  1  0
 12 13  1  0
 11 14  1  0
 14 15  1  0
  8 16  1  6
  1 17  1  0
  1 18  1  0
  1 19  1  0
  2 20  1  0
  2 21  1  0
  4 22  1  0
  4 23  1  0
  5 24  1  0
  5 25  1  0
  5 26  1  0
  9 27  1  0
  9 28  1  0
  9 29  1  0
 12 30  1  0
 12 31  1  0
 13 32  1  0
 13 33  1  0
 13 34  1  0
 14 35  1  0
 14 36  1  0
 15 37  1  0
 15 38  1  0
 15 39  1  0
M  END
$$$$
