A242_01_P7S_warhead
     RDKit          3D

 39 38  0  0  0  0  0  0  0  0999 V2000
   -1.3742   -1.8098   -1.9519 C   0  0  0  0  0  0  0  0  0  0  0  0
   -1.6884   -2.1296   -0.5321 C   0  0  0  0  0  0  0  0  0  0  0  0
   -1.2150   -1.1732    0.4376 N   0  0  0  0  0  0  0  0  0  0  0  0
   -1.5304   -1.4493    1.8370 C   0  0  0  0  0  0  0  0  0  0  0  0
   -0.8140   -2.6546    2.3669 C   0  0  0  0  0  0  0  0  0  0  0  0
   -0.4715    0.0172    0.0711 C   0  0  0  0  0  0  0  0  0  0  0  0
   -1.1372    1.1011    0.1208 N   0  0  0  0  0  0  0  0  0  0  0  0
   -0.6704    2.7065   -0.2202 P   0  0  1  0  0  5  0  0  0  0  0  0
   -2.1348    3.7710   -0.0072 C   0  0  0  0  0  0  0  0  0  0  0  0
    0.4376    3.2124    0.6818 O   0  0  0  0  0  0  0  0  0  0  0  0
    0.8884   -0.1206   -0.2960 N   0  0  0  0  0  0  0  0  0  0  0  0
    1.8276   -0.5211    0.7216 C   0  0  0  0  0  0  0  0  0  0  0  0
    2.8265    0.5052    1.1167 C   0  0  0  0  0  0  0  0  0  0  0  0
    1.4042    0.0966   -1.6305 C   0  0  0  0  0  0  0  0  0  0  0  0
    2.3167    1.2731   -1.7718 C   0  0  0  0  0  0  0  0  0  0  0  0
   -0.3677    2.7434   -1.1925 R   0  0  0  0  0  0  0  0  0  0  0  0
   -1.5898   -0.7437   -2.1661 H   0  0  0  0  0  0  0  0  0  0  0  0
   -0.3891   -2.1569   -2.2783 H   0  0  0  0  0  0  0  0  0  0  0  0
   -2.1342   -2.3643   -2.5835 H   0  0  0  0  0  0  0  0  0  0  0  0
   -1.3800   -3.1697   -0.2472 H   0  0  0  0  0  0  0  0  0  0  0  0
   -2.8134   -2.1261   -0.4144 H   0  0  0  0  0  0  0  0  0  0  0  0
   -1.4168   -0.5495    2.4742 H   0  0  0  0  0  0  0  0  0  0  0  0
   -2.6454   -1.6504    1.8432 H   0  0  0  0  0  0  0  0  0  0  0  0
   -0.3202   -2.3775    3.3098 H   0  0  0  0  0  0  0  0  0  0  0  0
   -0.0241   -3.0494    1.6976 H   0  0  0  0  0  0  0  0  0  0  0  0
   -1.5543   -3.4696    2.6323 H   0  0  0  0  0  0  0  0  0  0  0  0
   -1.8934    4.5869    0.6959 H   0  0  0  0  0  0  0  0  0  0  0  0
   -2.4856    4.1964   -0.9563 H   0  0  0  0  0  0  0  0  0  0  0  0
   -2.9859    3.2170    0.4610 H   0  0  0  0  0  0  0  0  0  0  0  0
    2.4140   -1.3744    0.2782 H   0  0  0  0  0  0  0  0  0  0  0  0
    1.3385   -0.8803    1.6522 H   0  0  0  0  0  0  0  0  0  0  0  0
    3.6401    0.5147    0.3715 H   0  0  0  0  0  0  0  0  0  0  0  0
    3.3205    0.1089    2.0528 H   0  0  0  0  0  0  0  0  0  0  0  0
    2.4366    1.4869    1.4085 H   0  0  0  0  0  0  0  0  0  0  0  0
    1.8907   -0.8488   -2.0242 H   0  0  0  0  0  0  0  0  0  0  0  0
    0.5737    0.2689   -2.3672 H   0  0  0  0  0  0  0  0  0  0  0  0
    3.3599    0.9249   -1.9846 H   0  0  0  0  0  0  0  0  0  0  0  0
    2.2809    1.9784   -0.9300 H   0  0  0  0  0  0  0  0  0  0  0  0
    2.0798    1.9094   -2.6768 H   0  0  0  0  0  0  0  0  0  0  0  0
  1  2  1  0
  2  3  1  0
  3  4  1  0
  4  5  1  0
  3  6  1  0
  6  7  2  3
  7  8  1  0
  8  9  1  0
  8 10  2  0
  6 11  1  0
 11 12  1  0
 12 13  1  0
 11 14  1  0
 14 15  1  0
  8 16  1  6
  1 17  1  0
  1 18  1  0
  1 19  1  0
  2 20  1  0
  2 21  1  0
  4 22  1  0
  4 23  1  0
  5 24  1  0
  5 25  1  0
  5 26  1  0
  9 27  1  0
  9 28  1  0
  9 29  1  0
 12 30  1  0
 12 31  1  0
 13 32  1  0
 13 33  1  0
 13 34  1  0
 14 35  1  0
 14 36  1  0
 15 37  1  0
 15 38  1  0
 15 39  1  0
M  END
$$$$
