BSAR_01_P5R_warhead
     RDKit          3D

 21 20  0  0  0  0  0  0  0  0999 V2000
   -2.7287    0.6653    0.6865 C   0  0  0  0  0  0  0  0  0  0  0  0
   -2.5509   -0.7500    0.1846 C   0  0  0  0  0  0  0  0  0  0  0  0
   -1.1344   -1.1858    0.3839 C   0  0  0  0  0  0  0  0  0  0  0  0
   -0.1690   -0.3062   -0.3552 C   0  0  0  0  0  0  0  0  0  0  0  0
    1.1245   -0.7818   -0.1155 O   0  0  0  0  0  0  0  0  0  0  0  0
    2.2156    0.2180   -0.9546 P   0  0  1  0  0  5  0  0  0  0  0  0
    3.6442    0.4726    0.1341 C   0  0  0  0  0  0  0  0  0  0  0  0
    2.6913   -0.5744   -2.1741 O   0  0  0  0  0  0  0  0  0  0  0  0
    1.8114    1.0340   -1.1971 R   0  0  0  0  0  0  0  0  0  0  0  0
   -2.0889    1.4010    0.1895 H   0  0  0  0  0  0  0  0  0  0  0  0
   -2.5115    0.6229    1.7919 H   0  0  0  0  0  0  0  0  0  0  0  0
   -3.7868    1.0006    0.5072 H   0  0  0  0  0  0  0  0  0  0  0  0
   -2.7760   -0.8236   -0.8970 H   0  0  0  0  0  0  0  0  0  0  0  0
   -3.2343   -1.3953    0.7602 H   0  0  0  0  0  0  0  0  0  0  0  0
   -0.8538   -1.2710    1.4520 H   0  0  0  0  0  0  0  0  0  0  0  0
   -1.0459   -2.2094   -0.0450 H   0  0  0  0  0  0  0  0  0  0  0  0
   -0.1716    0.7384   -0.0233 H   0  0  0  0  0  0  0  0  0  0  0  0
   -0.3716   -0.3612   -1.4438 H   0  0  0  0  0  0  0  0  0  0  0  0
    3.8258    1.5573    0.3183 H   0  0  0  0  0  0  0  0  0  0  0  0
    4.5800    0.0840   -0.3127 H   0  0  0  0  0  0  0  0  0  0  0  0
    3.5307   -0.0286    1.1101 H   0  0  0  0  0  0  0  0  0  0  0  0
  1  2  1  0
  2  3  1  0
  3  4  1  0
  4  5  1  0
  5  6  1  0
  6  7  1  0
  6  8  2  0
  6  9  1  6
  1 10  1  0
  1 11  1  0
  1 12  1  0
  2 13  1  0
  2 14  1  0
  3 15  1  0
  3 16  1  0
  4 17  1  0
  4 18  1  0
  7 19  1  0
  7 20  1  0
  7 21  1  0
M  END
$$$$
