BSAR_00_P5S_warhead
     RDKit          3D

 21 20  0  0  0  0  0  0  0  0999 V2000
   -2.6616    0.6805    0.2498 C   0  0  0  0  0  0  0  0  0  0  0  0
   -2.5312   -0.8237    0.1455 C   0  0  0  0  0  0  0  0  0  0  0  0
   -1.1644   -1.2037    0.6714 C   0  0  0  0  0  0  0  0  0  0  0  0
   -0.1386   -0.4949   -0.1972 C   0  0  0  0  0  0  0  0  0  0  0  0
    1.1683   -0.7989    0.2300 O   0  0  0  0  0  0  0  0  0  0  0  0
    2.2231    0.0346   -0.7944 P   0  0  2  0  0  5  0  0  0  0  0  0
    3.6782    0.6350    0.0623 C   0  0  0  0  0  0  0  0  0  0  0  0
    1.5029    1.1191   -1.5368 O   0  0  0  0  0  0  0  0  0  0  0  0
    2.5364   -0.6708   -1.4477 R   0  0  0  0  0  0  0  0  0  0  0  0
   -2.1435    1.1901   -0.5779 H   0  0  0  0  0  0  0  0  0  0  0  0
   -2.1473    0.9629    1.2134 H   0  0  0  0  0  0  0  0  0  0  0  0
   -3.7196    0.9955    0.3592 H   0  0  0  0  0  0  0  0  0  0  0  0
   -2.6472   -1.1659   -0.9166 H   0  0  0  0  0  0  0  0  0  0  0  0
   -3.2836   -1.2918    0.8105 H   0  0  0  0  0  0  0  0  0  0  0  0
   -1.0810   -0.7840    1.6953 H   0  0  0  0  0  0  0  0  0  0  0  0
   -0.9753   -2.2761    0.7123 H   0  0  0  0  0  0  0  0  0  0  0  0
   -0.3336   -0.8295   -1.2373 H   0  0  0  0  0  0  0  0  0  0  0  0
   -0.2280    0.5939   -0.1315 H   0  0  0  0  0  0  0  0  0  0  0  0
    3.5311    1.6797    0.4124 H   0  0  0  0  0  0  0  0  0  0  0  0
    4.5327    0.6176   -0.6326 H   0  0  0  0  0  0  0  0  0  0  0  0
    3.8825   -0.0631    0.9098 H   0  0  0  0  0  0  0  0  0  0  0  0
  1  2  1  0
  2  3  1  0
  3  4  1  0
  4  5  1  0
  5  6  1  0
  6  7  1  0
  6  8  2  0
  6  9  1  6
  1 10  1  0
  1 11  1  0
  1 12  1  0
  2 13  1  0
  2 14  1  0
  3 15  1  0
  3 16  1  0
  4 17  1  0
  4 18  1  0
  7 19  1  0
  7 20  1  0
  7 21  1  0
M  END
$$$$
