DETAB_01_P3S_warhead
     RDKit          3D

 26 25  0  0  0  0  0  0  0  0999 V2000
    3.8112    0.8879    0.2374 C   0  0  0  0  0  0  0  0  0  0  0  0
    2.6558    0.1174   -0.3228 C   0  0  0  0  0  0  0  0  0  0  0  0
    1.6535   -0.1642    0.6009 O   0  0  0  0  0  0  0  0  0  0  0  0
    0.5006   -1.1240   -0.1063 P   0  0  1  0  0  5  0  0  0  0  0  0
    0.3282   -2.4559    0.5828 O   0  0  0  0  0  0  0  0  0  0  0  0
   -1.0476   -0.3638   -0.3423 N   0  0  0  0  0  0  0  0  0  0  0  0
   -2.0439   -1.4028   -0.1843 C   0  0  0  0  0  0  0  0  0  0  0  0
   -3.4178   -0.9960   -0.6617 C   0  0  0  0  0  0  0  0  0  0  0  0
   -1.3203    0.7187    0.5516 C   0  0  0  0  0  0  0  0  0  0  0  0
   -0.3608    1.8786    0.4451 C   0  0  0  0  0  0  0  0  0  0  0  0
    0.7857   -1.3335   -1.0946 R   0  0  0  0  0  0  0  0  0  0  0  0
    3.6441    1.2190    1.2740 H   0  0  0  0  0  0  0  0  0  0  0  0
    4.7735    0.3013    0.2649 H   0  0  0  0  0  0  0  0  0  0  0  0
    4.0118    1.7935   -0.3991 H   0  0  0  0  0  0  0  0  0  0  0  0
    3.0575   -0.8891   -0.6460 H   0  0  0  0  0  0  0  0  0  0  0  0
    2.1845    0.6302   -1.1962 H   0  0  0  0  0  0  0  0  0  0  0  0
   -1.7654   -2.3312   -0.7319 H   0  0  0  0  0  0  0  0  0  0  0  0
   -2.1009   -1.6651    0.8904 H   0  0  0  0  0  0  0  0  0  0  0  0
   -3.8930   -0.2712    0.0059 H   0  0  0  0  0  0  0  0  0  0  0  0
   -4.0200   -1.9361   -0.6324 H   0  0  0  0  0  0  0  0  0  0  0  0
   -3.3858   -0.6998   -1.7300 H   0  0  0  0  0  0  0  0  0  0  0  0
   -1.3193    0.3488    1.6047 H   0  0  0  0  0  0  0  0  0  0  0  0
   -2.3324    1.1019    0.2947 H   0  0  0  0  0  0  0  0  0  0  0  0
    0.4955    1.7868    1.1423 H   0  0  0  0  0  0  0  0  0  0  0  0
   -0.8763    2.8283    0.7539 H   0  0  0  0  0  0  0  0  0  0  0  0
   -0.0186    2.0203   -0.6011 H   0  0  0  0  0  0  0  0  0  0  0  0
  1  2  1  0
  2  3  1  0
  3  4  1  0
  4  5  2  0
  4  6  1  0
  6  7  1  0
  7  8  1  0
  6  9  1  0
  9 10  1  0
  4 11  1  6
  1 12  1  0
  1 13  1  0
  1 14  1  0
  2 15  1  0
  2 16  1  0
  7 17  1  0
  7 18  1  0
  8 19  1  0
  8 20  1  0
  8 21  1  0
  9 22  1  0
  9 23  1  0
 10 24  1  0
 10 25  1  0
 10 26  1  0
M  END
$$$$
