DETAB_00_P3R_warhead
     RDKit          3D

 26 25  0  0  0  0  0  0  0  0999 V2000
    4.0766   -0.7665    0.1253 C   0  0  0  0  0  0  0  0  0  0  0  0
    2.9045    0.1221   -0.2109 C   0  0  0  0  0  0  0  0  0  0  0  0
    1.7096   -0.3742    0.3456 O   0  0  0  0  0  0  0  0  0  0  0  0
    0.4830    0.6894   -0.0667 P   0  0  2  0  0  5  0  0  0  0  0  0
    0.4115    1.8427    0.9171 O   0  0  0  0  0  0  0  0  0  0  0  0
   -1.0786   -0.0611   -0.2351 N   0  0  0  0  0  0  0  0  0  0  0  0
   -1.1605   -1.3356    0.4465 C   0  0  0  0  0  0  0  0  0  0  0  0
   -2.4745   -1.9835   -0.0109 C   0  0  0  0  0  0  0  0  0  0  0  0
   -2.0734    0.8715    0.2235 C   0  0  0  0  0  0  0  0  0  0  0  0
   -1.9041    2.1598   -0.5521 C   0  0  0  0  0  0  0  0  0  0  0  0
    0.7012    1.0642   -0.9576 R   0  0  0  0  0  0  0  0  0  0  0  0
    4.0247   -1.0884    1.1991 H   0  0  0  0  0  0  0  0  0  0  0  0
    4.0537   -1.6582   -0.5307 H   0  0  0  0  0  0  0  0  0  0  0  0
    5.0179   -0.1980   -0.0099 H   0  0  0  0  0  0  0  0  0  0  0  0
    2.8328    0.1368   -1.3294 H   0  0  0  0  0  0  0  0  0  0  0  0
    3.1448    1.1432    0.1242 H   0  0  0  0  0  0  0  0  0  0  0  0
   -0.3623   -1.9913    0.0909 H   0  0  0  0  0  0  0  0  0  0  0  0
   -1.1902   -1.2201    1.5403 H   0  0  0  0  0  0  0  0  0  0  0  0
   -3.2729   -1.6968    0.7075 H   0  0  0  0  0  0  0  0  0  0  0  0
   -2.4116   -3.0759   -0.0755 H   0  0  0  0  0  0  0  0  0  0  0  0
   -2.7935   -1.5472   -0.9846 H   0  0  0  0  0  0  0  0  0  0  0  0
   -1.8713    1.0582    1.3189 H   0  0  0  0  0  0  0  0  0  0  0  0
   -3.0993    0.4684    0.1396 H   0  0  0  0  0  0  0  0  0  0  0  0
   -1.4866    2.9386    0.1144 H   0  0  0  0  0  0  0  0  0  0  0  0
   -2.9194    2.5034   -0.8858 H   0  0  0  0  0  0  0  0  0  0  0  0
   -1.2620    1.9985   -1.4437 H   0  0  0  0  0  0  0  0  0  0  0  0
  1  2  1  0
  2  3  1  0
  3  4  1  0
  4  5  2  0
  4  6  1  0
  6  7  1  0
  7  8  1  0
  6  9  1  0
  9 10  1  0
  4 11  1  6
  1 12  1  0
  1 13  1  0
  1 14  1  0
  2 15  1  0
  2 16  1  0
  7 17  1  0
  7 18  1  0
  8 19  1  0
  8 20  1  0
  8 21  1  0
  9 22  1  0
  9 23  1  0
 10 24  1  0
 10 25  1  0
 10 26  1  0
M  END
$$$$
