GA_00_P3R_warhead
     RDKit          3D

 20 19  0  0  0  0  0  0  0  0999 V2000
    3.2584    0.2883   -0.3894 C   0  0  0  0  0  0  0  0  0  0  0  0
    1.9526   -0.0650    0.2842 C   0  0  0  0  0  0  0  0  0  0  0  0
    1.0156    0.9440    0.2748 O   0  0  0  0  0  0  0  0  0  0  0  0
   -0.4222    0.5664    1.0113 P   0  0  2  0  0  5  0  0  0  0  0  0
   -0.3174   -0.5363    2.0256 O   0  0  0  0  0  0  0  0  0  0  0  0
   -1.7718    0.3289   -0.0113 N   0  0  0  0  0  0  0  0  0  0  0  0
   -2.7104   -0.6156    0.5591 C   0  0  0  0  0  0  0  0  0  0  0  0
   -1.5142    0.1583   -1.3992 C   0  0  0  0  0  0  0  0  0  0  0  0
   -0.7015    1.4482    1.6264 R   0  0  0  0  0  0  0  0  0  0  0  0
    3.1099    0.6542   -1.4216 H   0  0  0  0  0  0  0  0  0  0  0  0
    3.8257   -0.6603   -0.4970 H   0  0  0  0  0  0  0  0  0  0  0  0
    3.8802    0.9853    0.1725 H   0  0  0  0  0  0  0  0  0  0  0  0
    1.5210   -0.8886   -0.3549 H   0  0  0  0  0  0  0  0  0  0  0  0
    2.1573   -0.4627    1.2814 H   0  0  0  0  0  0  0  0  0  0  0  0
   -2.2022   -1.5760    0.7815 H   0  0  0  0  0  0  0  0  0  0  0  0
   -3.6089   -0.7573   -0.0578 H   0  0  0  0  0  0  0  0  0  0  0  0
   -2.9990   -0.1838    1.5538 H   0  0  0  0  0  0  0  0  0  0  0  0
   -2.2426   -0.5658   -1.8669 H   0  0  0  0  0  0  0  0  0  0  0  0
   -1.7312    1.1372   -1.9095 H   0  0  0  0  0  0  0  0  0  0  0  0
   -0.4992   -0.1994   -1.6631 H   0  0  0  0  0  0  0  0  0  0  0  0
  1  2  1  0
  2  3  1  0
  3  4  1  0
  4  5  2  0
  4  6  1  0
  6  7  1  0
  6  8  1  0
  4  9  1  1
  1 10  1  0
  1 11  1  0
  1 12  1  0
  2 13  1  0
  2 14  1  0
  7 15  1  0
  7 16  1  0
  7 17  1  0
  8 18  1  0
  8 19  1  0
  8 20  1  0
M  END
$$$$
