GA_01_P3S_warhead
     RDKit          3D

 20 19  0  0  0  0  0  0  0  0999 V2000
    3.1549   -0.1653    0.4012 C   0  0  0  0  0  0  0  0  0  0  0  0
    1.8767    0.1169   -0.3958 C   0  0  0  0  0  0  0  0  0  0  0  0
    0.9464    0.8108    0.3599 O   0  0  0  0  0  0  0  0  0  0  0  0
   -0.4404    1.1090   -0.5287 P   0  0  1  0  0  5  0  0  0  0  0  0
   -0.2872    0.7688   -1.9879 O   0  0  0  0  0  0  0  0  0  0  0  0
   -1.8121    0.3393    0.1799 N   0  0  0  0  0  0  0  0  0  0  0  0
   -1.4833   -0.3865    1.3684 C   0  0  0  0  0  0  0  0  0  0  0  0
   -2.6276   -0.3787   -0.7659 C   0  0  0  0  0  0  0  0  0  0  0  0
   -0.6415    2.1184   -0.4431 R   0  0  0  0  0  0  0  0  0  0  0  0
    2.9054   -0.2126    1.4903 H   0  0  0  0  0  0  0  0  0  0  0  0
    3.6159   -1.1131    0.0581 H   0  0  0  0  0  0  0  0  0  0  0  0
    3.8687    0.6841    0.2154 H   0  0  0  0  0  0  0  0  0  0  0  0
    2.1841    0.6412   -1.3036 H   0  0  0  0  0  0  0  0  0  0  0  0
    1.4487   -0.8890   -0.6279 H   0  0  0  0  0  0  0  0  0  0  0  0
   -0.3931   -0.5675    1.4397 H   0  0  0  0  0  0  0  0  0  0  0  0
   -1.9770   -1.3798    1.4317 H   0  0  0  0  0  0  0  0  0  0  0  0
   -1.7637    0.1927    2.2816 H   0  0  0  0  0  0  0  0  0  0  0  0
   -3.2689   -1.1288   -0.3043 H   0  0  0  0  0  0  0  0  0  0  0  0
   -3.2957    0.3300   -1.3202 H   0  0  0  0  0  0  0  0  0  0  0  0
   -2.0102   -0.8901   -1.5487 H   0  0  0  0  0  0  0  0  0  0  0  0
  1  2  1  0
  2  3  1  0
  3  4  1  0
  4  5  2  0
  4  6  1  0
  6  7  1  0
  6  8  1  0
  4  9  1  6
  1 10  1  0
  1 11  1  0
  1 12  1  0
  2 13  1  0
  2 14  1  0
  7 15  1  0
  7 16  1  0
  7 17  1  0
  8 18  1  0
  8 19  1  0
  8 20  1  0
M  END
$$$$
