GB_01_P4R_warhead
     RDKit          3D

 18 17  0  0  0  0  0  0  0  0999 V2000
   -2.0669   -0.9473    0.5463 C   0  0  0  0  0  0  0  0  0  0  0  0
   -1.0202   -0.0708   -0.0555 C   0  0  0  0  0  0  0  0  0  0  0  0
   -1.5443    1.3515   -0.1532 C   0  0  0  0  0  0  0  0  0  0  0  0
    0.1615    0.0085    0.6720 O   0  0  0  0  0  0  0  0  0  0  0  0
    1.4010   -0.4125   -0.4344 P   0  0  1  0  0  5  0  0  0  0  0  0
    3.0231    0.0907    0.1286 C   0  0  0  0  0  0  0  0  0  0  0  0
    1.3148   -1.9037   -0.6737 O   0  0  0  0  0  0  0  0  0  0  0  0
    1.1947    0.0992   -1.2967 R   0  0  0  0  0  0  0  0  0  0  0  0
   -1.6740   -1.7861    1.1585 H   0  0  0  0  0  0  0  0  0  0  0  0
   -2.6818   -0.3195    1.2239 H   0  0  0  0  0  0  0  0  0  0  0  0
   -2.7069   -1.3991   -0.2411 H   0  0  0  0  0  0  0  0  0  0  0  0
   -0.7178   -0.3804   -1.0925 H   0  0  0  0  0  0  0  0  0  0  0  0
   -2.3591    1.3590   -0.8826 H   0  0  0  0  0  0  0  0  0  0  0  0
   -0.7235    2.0556   -0.4474 H   0  0  0  0  0  0  0  0  0  0  0  0
   -1.8435    1.6526    0.8772 H   0  0  0  0  0  0  0  0  0  0  0  0
    3.0382    0.5357    1.1493 H   0  0  0  0  0  0  0  0  0  0  0  0
    3.4732    0.8480   -0.5509 H   0  0  0  0  0  0  0  0  0  0  0  0
    3.7316   -0.7814    0.0722 H   0  0  0  0  0  0  0  0  0  0  0  0
  1  2  1  0
  2  3  1  0
  2  4  1  0
  4  5  1  0
  5  6  1  0
  5  7  2  0
  5  8  1  6
  1  9  1  0
  1 10  1  0
  1 11  1  0
  2 12  1  0
  3 13  1  0
  3 14  1  0
  3 15  1  0
  6 16  1  0
  6 17  1  0
  6 18  1  0
M  END
$$$$
