GB_00_P4S_warhead
     RDKit          3D

 18 17  0  0  0  0  0  0  0  0999 V2000
   -2.1552   -0.8642    0.1688 C   0  0  0  0  0  0  0  0  0  0  0  0
   -0.9658    0.0550    0.0976 C   0  0  0  0  0  0  0  0  0  0  0  0
   -1.3295    1.4532   -0.3353 C   0  0  0  0  0  0  0  0  0  0  0  0
    0.0062   -0.5154   -0.7229 O   0  0  0  0  0  0  0  0  0  0  0  0
    1.4014   -0.9136    0.1122 P   0  0  2  0  0  5  0  0  0  0  0  0
    2.7588    0.2288   -0.2030 C   0  0  0  0  0  0  0  0  0  0  0  0
    1.7974   -2.3483   -0.0134 O   0  0  0  0  0  0  0  0  0  0  0  0
    1.1558   -0.7608    1.1940 R   0  0  0  0  0  0  0  0  0  0  0  0
   -1.7887   -1.8015    0.6666 H   0  0  0  0  0  0  0  0  0  0  0  0
   -2.8876   -0.3990    0.8613 H   0  0  0  0  0  0  0  0  0  0  0  0
   -2.5793   -1.1149   -0.8154 H   0  0  0  0  0  0  0  0  0  0  0  0
   -0.5263    0.0907    1.1238 H   0  0  0  0  0  0  0  0  0  0  0  0
   -2.0768    1.4235   -1.1516 H   0  0  0  0  0  0  0  0  0  0  0  0
   -0.4298    1.9723   -0.7190 H   0  0  0  0  0  0  0  0  0  0  0  0
   -1.6841    1.9976    0.5649 H   0  0  0  0  0  0  0  0  0  0  0  0
    3.0987    0.7669    0.7182 H   0  0  0  0  0  0  0  0  0  0  0  0
    2.5251    1.0075   -0.9587 H   0  0  0  0  0  0  0  0  0  0  0  0
    3.6799   -0.2778   -0.5882 H   0  0  0  0  0  0  0  0  0  0  0  0
  1  2  1  0
  2  3  1  0
  2  4  1  0
  4  5  1  0
  5  6  1  0
  5  7  2  0
  5  8  1  1
  1  9  1  0
  1 10  1  0
  1 11  1  0
  2 12  1  0
  3 13  1  0
  3 14  1  0
  3 15  1  0
  6 16  1  0
  6 17  1  0
  6 18  1  0
M  END
$$$$
