GD_03_C1R_P3R_warhead
     RDKit          3D

 27 26  0  0  0  0  0  0  0  0999 V2000
   -0.4760   -2.0367   -0.9052 C   0  0  0  0  0  0  0  0  0  0  0  0
   -0.0052   -0.8118   -0.1876 C   0  0  1  0  0  0  0  0  0  0  0  0
    0.8859   -0.1439   -1.0142 O   0  0  0  0  0  0  0  0  0  0  0  0
    2.4308   -0.1207   -0.3596 P   0  0  1  0  0  5  0  0  0  0  0  0
    3.1611    1.5331   -0.3890 C   0  0  0  0  0  0  0  0  0  0  0  0
    2.3397   -0.5616    1.0828 O   0  0  0  0  0  0  0  0  0  0  0  0
   -1.1372    0.0756    0.2692 C   0  0  0  0  0  0  0  0  0  0  0  0
   -2.0192   -0.7114    1.2116 C   0  0  0  0  0  0  0  0  0  0  0  0
   -1.9580    0.6084   -0.8557 C   0  0  0  0  0  0  0  0  0  0  0  0
   -0.5465    1.2400    1.0390 C   0  0  0  0  0  0  0  0  0  0  0  0
    2.9749   -0.6975   -0.8180 R   0  0  0  0  0  0  0  0  0  0  0  0
   -1.3225   -2.4483   -0.3332 H   0  0  0  0  0  0  0  0  0  0  0  0
    0.3529   -2.7835   -0.8725 H   0  0  0  0  0  0  0  0  0  0  0  0
   -0.7377   -1.8223   -1.9611 H   0  0  0  0  0  0  0  0  0  0  0  0
    0.5501   -1.1624    0.7067 H   0  0  0  0  0  0  0  0  0  0  0  0
    4.2584    1.4071   -0.2067 H   0  0  0  0  0  0  0  0  0  0  0  0
    2.7654    2.1641    0.4145 H   0  0  0  0  0  0  0  0  0  0  0  0
    2.9902    1.9620   -1.4020 H   0  0  0  0  0  0  0  0  0  0  0  0
   -2.2411   -0.1048    2.1275 H   0  0  0  0  0  0  0  0  0  0  0  0
   -2.9311   -1.0967    0.7190 H   0  0  0  0  0  0  0  0  0  0  0  0
   -1.4506   -1.5856    1.5900 H   0  0  0  0  0  0  0  0  0  0  0  0
   -2.9998    0.1958   -0.8784 H   0  0  0  0  0  0  0  0  0  0  0  0
   -2.0912    1.7127   -0.7982 H   0  0  0  0  0  0  0  0  0  0  0  0
   -1.5148    0.4243   -1.8547 H   0  0  0  0  0  0  0  0  0  0  0  0
   -0.6410    1.1253    2.1393 H   0  0  0  0  0  0  0  0  0  0  0  0
   -1.1224    2.1842    0.8102 H   0  0  0  0  0  0  0  0  0  0  0  0
    0.4849    1.4545    0.7265 H   0  0  0  0  0  0  0  0  0  0  0  0
  1  2  1  0
  2  3  1  0
  3  4  1  0
  4  5  1  0
  4  6  2  0
  2  7  1  0
  7  8  1  0
  7  9  1  0
  7 10  1  0
  4 11  1  6
  1 12  1  0
  1 13  1  0
  1 14  1  0
  2 15  1  1
  5 16  1  0
  5 17  1  0
  5 18  1  0
  8 19  1  0
  8 20  1  0
  8 21  1  0
  9 22  1  0
  9 23  1  0
  9 24  1  0
 10 25  1  0
 10 26  1  0
 10 27  1  0
M  END
$$$$
