GD_01_C1R_P3S_warhead
     RDKit          3D

 27 26  0  0  0  0  0  0  0  0999 V2000
   -0.0399   -1.9875   -0.5558 C   0  0  0  0  0  0  0  0  0  0  0  0
    0.1938   -0.5265   -0.2251 C   0  0  1  0  0  0  0  0  0  0  0  0
    0.6808    0.0752   -1.3573 O   0  0  0  0  0  0  0  0  0  0  0  0
    2.1725    0.8080   -1.1538 P   0  0  2  0  0  5  0  0  0  0  0  0
    2.8919    0.5484    0.4742 C   0  0  0  0  0  0  0  0  0  0  0  0
    2.1274    2.2667   -1.4643 O   0  0  0  0  0  0  0  0  0  0  0  0
   -1.1174    0.1043    0.1960 C   0  0  0  0  0  0  0  0  0  0  0  0
   -1.6271   -0.6340    1.4156 C   0  0  0  0  0  0  0  0  0  0  0  0
   -2.1408    0.0532   -0.9266 C   0  0  0  0  0  0  0  0  0  0  0  0
   -0.9235    1.5446    0.5687 C   0  0  0  0  0  0  0  0  0  0  0  0
    2.8128    0.3911   -1.8066 R   0  0  0  0  0  0  0  0  0  0  0  0
   -1.0622   -2.3251   -0.3364 H   0  0  0  0  0  0  0  0  0  0  0  0
    0.6621   -2.5974    0.0733 H   0  0  0  0  0  0  0  0  0  0  0  0
    0.2054   -2.2295   -1.6144 H   0  0  0  0  0  0  0  0  0  0  0  0
    0.8763   -0.4283    0.6525 H   0  0  0  0  0  0  0  0  0  0  0  0
    2.9233   -0.5342    0.7377 H   0  0  0  0  0  0  0  0  0  0  0  0
    3.9793    0.8338    0.3884 H   0  0  0  0  0  0  0  0  0  0  0  0
    2.3986    1.1547    1.2478 H   0  0  0  0  0  0  0  0  0  0  0  0
   -1.3729   -0.0412    2.3410 H   0  0  0  0  0  0  0  0  0  0  0  0
   -1.0795   -1.6011    1.5712 H   0  0  0  0  0  0  0  0  0  0  0  0
   -2.7134   -0.7772    1.3762 H   0  0  0  0  0  0  0  0  0  0  0  0
   -3.1408   -0.2352   -0.5420 H   0  0  0  0  0  0  0  0  0  0  0  0
   -2.2517    1.0445   -1.4095 H   0  0  0  0  0  0  0  0  0  0  0  0
   -1.8208   -0.7236   -1.6323 H   0  0  0  0  0  0  0  0  0  0  0  0
   -1.4798    1.8078    1.4952 H   0  0  0  0  0  0  0  0  0  0  0  0
   -1.2993    2.2153   -0.2386 H   0  0  0  0  0  0  0  0  0  0  0  0
    0.1450    1.7932    0.7248 H   0  0  0  0  0  0  0  0  0  0  0  0
  1  2  1  0
  2  3  1  0
  3  4  1  0
  4  5  1  0
  4  6  2  0
  2  7  1  0
  7  8  1  0
  7  9  1  0
  7 10  1  0
  4 11  1  6
  1 12  1  0
  1 13  1  0
  1 14  1  0
  2 15  1  1
  5 16  1  0
  5 17  1  0
  5 18  1  0
  8 19  1  0
  8 20  1  0
  8 21  1  0
  9 22  1  0
  9 23  1  0
  9 24  1  0
 10 25  1  0
 10 26  1  0
 10 27  1  0
M  END
$$$$
