GD_02_C1S_P3R_warhead
     RDKit          3D

 27 26  0  0  0  0  0  0  0  0999 V2000
   -0.6034   -2.1840   -0.5788 C   0  0  0  0  0  0  0  0  0  0  0  0
   -0.0398   -0.7945   -0.4502 C   0  0  2  0  0  0  0  0  0  0  0  0
    0.9938   -0.6996    0.4554 O   0  0  0  0  0  0  0  0  0  0  0  0
    2.4651   -0.2245   -0.1561 P   0  0  1  0  0  5  0  0  0  0  0  0
    3.1217    1.0899    0.9109 C   0  0  0  0  0  0  0  0  0  0  0  0
    3.5008   -1.3397   -0.1451 O   0  0  0  0  0  0  0  0  0  0  0  0
   -1.0920    0.2185   -0.0808 C   0  0  0  0  0  0  0  0  0  0  0  0
   -1.7501   -0.1079    1.2427 C   0  0  0  0  0  0  0  0  0  0  0  0
   -2.1941    0.2455   -1.1213 C   0  0  0  0  0  0  0  0  0  0  0  0
   -0.4299    1.5647    0.0480 C   0  0  0  0  0  0  0  0  0  0  0  0
    2.4096    0.1050   -1.0288 R   0  0  0  0  0  0  0  0  0  0  0  0
   -1.7172   -2.1121   -0.4248 H   0  0  0  0  0  0  0  0  0  0  0  0
   -0.2330   -2.8958    0.1552 H   0  0  0  0  0  0  0  0  0  0  0  0
   -0.4849   -2.6148   -1.5917 H   0  0  0  0  0  0  0  0  0  0  0  0
    0.3385   -0.5204   -1.4564 H   0  0  0  0  0  0  0  0  0  0  0  0
    4.2260    1.0160    0.9918 H   0  0  0  0  0  0  0  0  0  0  0  0
    2.7077    0.9721    1.9144 H   0  0  0  0  0  0  0  0  0  0  0  0
    2.8043    2.0752    0.4978 H   0  0  0  0  0  0  0  0  0  0  0  0
   -1.0066    0.0079    2.0493 H   0  0  0  0  0  0  0  0  0  0  0  0
   -2.5139    0.6756    1.4256 H   0  0  0  0  0  0  0  0  0  0  0  0
   -2.2484   -1.0834    1.2586 H   0  0  0  0  0  0  0  0  0  0  0  0
   -3.1308   -0.1648   -0.7432 H   0  0  0  0  0  0  0  0  0  0  0  0
   -2.3455    1.3009   -1.4122 H   0  0  0  0  0  0  0  0  0  0  0  0
   -1.8439   -0.3307   -2.0182 H   0  0  0  0  0  0  0  0  0  0  0  0
   -0.3646    1.8724    1.1233 H   0  0  0  0  0  0  0  0  0  0  0  0
   -1.1227    2.3002   -0.4237 H   0  0  0  0  0  0  0  0  0  0  0  0
    0.5534    1.6283   -0.4418 H   0  0  0  0  0  0  0  0  0  0  0  0
  1  2  1  0
  2  3  1  0
  3  4  1  0
  4  5  1  0
  4  6  2  0
  2  7  1  0
  7  8  1  0
  7  9  1  0
  7 10  1  0
  4 11  1  6
  1 12  1  0
  1 13  1  0
  1 14  1  0
  2 15  1  6
  5 16  1  0
  5 17  1  0
  5 18  1  0
  8 19  1  0
  8 20  1  0
  8 21  1  0
  9 22  1  0
  9 23  1  0
  9 24  1  0
 10 25  1  0
 10 26  1  0
 10 27  1  0
M  END
$$$$
