GD_00_C1S_P3S_warhead
     RDKit          3D

 27 26  0  0  0  0  0  0  0  0999 V2000
   -0.4559   -1.8754   -1.2844 C   0  0  0  0  0  0  0  0  0  0  0  0
   -0.0848   -0.5137   -0.7433 C   0  0  2  0  0  0  0  0  0  0  0  0
    1.1059   -0.5726   -0.0194 O   0  0  0  0  0  0  0  0  0  0  0  0
    2.2854    0.4292   -0.6617 P   0  0  2  0  0  5  0  0  0  0  0  0
    3.3552    0.9759    0.7158 C   0  0  0  0  0  0  0  0  0  0  0  0
    1.6609    1.6630   -1.2627 O   0  0  0  0  0  0  0  0  0  0  0  0
   -1.1489    0.0105    0.1982 C   0  0  0  0  0  0  0  0  0  0  0  0
   -1.3273   -0.9238    1.3685 C   0  0  0  0  0  0  0  0  0  0  0  0
   -2.4559    0.2569   -0.5168 C   0  0  0  0  0  0  0  0  0  0  0  0
   -0.6653    1.3399    0.7272 C   0  0  0  0  0  0  0  0  0  0  0  0
    2.8065   -0.0092   -1.2682 R   0  0  0  0  0  0  0  0  0  0  0  0
   -1.4139   -2.2293   -0.8502 H   0  0  0  0  0  0  0  0  0  0  0  0
    0.3194   -2.6017   -0.9532 H   0  0  0  0  0  0  0  0  0  0  0  0
   -0.4850   -1.8569   -2.3894 H   0  0  0  0  0  0  0  0  0  0  0  0
    0.0223    0.2005   -1.5896 H   0  0  0  0  0  0  0  0  0  0  0  0
    3.9352    0.0908    1.0786 H   0  0  0  0  0  0  0  0  0  0  0  0
    4.0331    1.7834    0.3844 H   0  0  0  0  0  0  0  0  0  0  0  0
    2.7280    1.3219    1.5514 H   0  0  0  0  0  0  0  0  0  0  0  0
   -1.0392   -0.4504    2.3092 H   0  0  0  0  0  0  0  0  0  0  0  0
   -0.7130   -1.8409    1.1862 H   0  0  0  0  0  0  0  0  0  0  0  0
   -2.4014   -1.2197    1.4627 H   0  0  0  0  0  0  0  0  0  0  0  0
   -3.2937    0.1434    0.1839 H   0  0  0  0  0  0  0  0  0  0  0  0
   -2.4332    1.2717   -0.9341 H   0  0  0  0  0  0  0  0  0  0  0  0
   -2.5853   -0.4831   -1.3276 H   0  0  0  0  0  0  0  0  0  0  0  0
   -1.3577    1.6742    1.5487 H   0  0  0  0  0  0  0  0  0  0  0  0
   -0.7574    2.1408   -0.0454 H   0  0  0  0  0  0  0  0  0  0  0  0
    0.3660    1.2745    1.1314 H   0  0  0  0  0  0  0  0  0  0  0  0
  1  2  1  0
  2  3  1  0
  3  4  1  0
  4  5  1  0
  4  6  2  0
  2  7  1  0
  7  8  1  0
  7  9  1  0
  7 10  1  0
  4 11  1  6
  1 12  1  0
  1 13  1  0
  1 14  1  0
  2 15  1  6
  5 16  1  0
  5 17  1  0
  5 18  1  0
  8 19  1  0
  8 20  1  0
  8 21  1  0
  9 22  1  0
  9 23  1  0
  9 24  1  0
 10 25  1  0
 10 26  1  0
 10 27  1  0
M  END
$$$$
