GF_01_P1R_warhead
     RDKit          3D

 25 25  0  0  0  0  0  0  0  0999 V2000
    2.9178    0.1708    0.5157 C   0  0  0  0  0  0  0  0  0  0  0  0
    2.5469   -0.8034   -0.9647 P   0  0  2  0  0  5  0  0  0  0  0  0
    3.3935   -0.4063   -2.1264 O   0  0  0  0  0  0  0  0  0  0  0  0
    0.9511   -1.0370   -1.2572 O   0  0  0  0  0  0  0  0  0  0  0  0
    0.0423   -0.3421   -0.4928 C   0  0  0  0  0  0  0  0  0  0  0  0
   -0.7868    0.6284   -1.2957 C   0  0  0  0  0  0  0  0  0  0  0  0
   -2.0397    0.9982   -0.5627 C   0  0  0  0  0  0  0  0  0  0  0  0
   -1.7856    1.0188    0.9308 C   0  0  0  0  0  0  0  0  0  0  0  0
   -1.5985   -0.4166    1.3518 C   0  0  0  0  0  0  0  0  0  0  0  0
   -0.8061   -1.2378    0.3798 C   0  0  0  0  0  0  0  0  0  0  0  0
    2.9280   -1.7616   -0.6768 R   0  0  0  0  0  0  0  0  0  0  0  0
    2.5133   -0.3531    1.3963 H   0  0  0  0  0  0  0  0  0  0  0  0
    2.5150    1.1891    0.4389 H   0  0  0  0  0  0  0  0  0  0  0  0
    4.0329    0.2413    0.5815 H   0  0  0  0  0  0  0  0  0  0  0  0
    0.6579    0.2692    0.2065 H   0  0  0  0  0  0  0  0  0  0  0  0
   -1.0355    0.1281   -2.2522 H   0  0  0  0  0  0  0  0  0  0  0  0
   -0.2396    1.5806   -1.4811 H   0  0  0  0  0  0  0  0  0  0  0  0
   -2.3961    2.0160   -0.8985 H   0  0  0  0  0  0  0  0  0  0  0  0
   -2.8020    0.2123   -0.7511 H   0  0  0  0  0  0  0  0  0  0  0  0
   -2.6988    1.4065    1.4350 H   0  0  0  0  0  0  0  0  0  0  0  0
   -0.9213    1.6377    1.2180 H   0  0  0  0  0  0  0  0  0  0  0  0
   -1.1431   -0.4925    2.3681 H   0  0  0  0  0  0  0  0  0  0  0  0
   -2.6330   -0.8506    1.4780 H   0  0  0  0  0  0  0  0  0  0  0  0
   -1.5025   -1.8790   -0.2024 H   0  0  0  0  0  0  0  0  0  0  0  0
   -0.1099   -1.9172    0.9153 H   0  0  0  0  0  0  0  0  0  0  0  0
  1  2  1  0
  2  3  2  0
  2  4  1  0
  4  5  1  0
  5  6  1  0
  6  7  1  0
  7  8  1  0
  8  9  1  0
  9 10  1  0
 10  5  1  0
  2 11  1  1
  1 12  1  0
  1 13  1  0
  1 14  1  0
  5 15  1  0
  6 16  1  0
  6 17  1  0
  7 18  1  0
  7 19  1  0
  8 20  1  0
  8 21  1  0
  9 22  1  0
  9 23  1  0
 10 24  1  0
 10 25  1  0
M  END
$$$$
