GF_00_P1S_warhead
     RDKit          3D

 25 25  0  0  0  0  0  0  0  0999 V2000
    3.2243   -0.1839    0.8889 C   0  0  0  0  0  0  0  0  0  0  0  0
    2.5958    0.3668   -0.7404 P   0  0  1  0  0  5  0  0  0  0  0  0
    3.6666    0.0616   -1.7690 O   0  0  0  0  0  0  0  0  0  0  0  0
    1.2569   -0.5876   -1.0780 O   0  0  0  0  0  0  0  0  0  0  0  0
    0.0905   -0.1908   -0.4824 C   0  0  0  0  0  0  0  0  0  0  0  0
   -0.9968    0.1711   -1.4538 C   0  0  0  0  0  0  0  0  0  0  0  0
   -2.1287    0.8535   -0.7608 C   0  0  0  0  0  0  0  0  0  0  0  0
   -1.9894    0.7942    0.7478 C   0  0  0  0  0  0  0  0  0  0  0  0
   -1.7522   -0.6628    1.0797 C   0  0  0  0  0  0  0  0  0  0  0  0
   -0.4500   -1.1727    0.5132 C   0  0  0  0  0  0  0  0  0  0  0  0
    2.4543    1.2875   -0.7024 R   0  0  0  0  0  0  0  0  0  0  0  0
    2.4262   -0.1384    1.6531 H   0  0  0  0  0  0  0  0  0  0  0  0
    4.0422    0.4794    1.2296 H   0  0  0  0  0  0  0  0  0  0  0  0
    3.5390   -1.2593    0.8333 H   0  0  0  0  0  0  0  0  0  0  0  0
    0.3569    0.7299    0.1139 H   0  0  0  0  0  0  0  0  0  0  0  0
   -1.3911   -0.7566   -1.9339 H   0  0  0  0  0  0  0  0  0  0  0  0
   -0.6370    0.8741   -2.2449 H   0  0  0  0  0  0  0  0  0  0  0  0
   -2.2446    1.9345   -1.0603 H   0  0  0  0  0  0  0  0  0  0  0  0
   -3.1121    0.3573   -0.9940 H   0  0  0  0  0  0  0  0  0  0  0  0
   -2.9535    1.0840    1.2081 H   0  0  0  0  0  0  0  0  0  0  0  0
   -1.2399    1.4826    1.1355 H   0  0  0  0  0  0  0  0  0  0  0  0
   -1.8845   -0.8682    2.1563 H   0  0  0  0  0  0  0  0  0  0  0  0
   -2.5823   -1.2124    0.5473 H   0  0  0  0  0  0  0  0  0  0  0  0
   -0.5951   -2.1664    0.0345 H   0  0  0  0  0  0  0  0  0  0  0  0
    0.3044   -1.2775    1.3330 H   0  0  0  0  0  0  0  0  0  0  0  0
  1  2  1  0
  2  3  2  0
  2  4  1  0
  4  5  1  0
  5  6  1  0
  6  7  1  0
  7  8  1  0
  8  9  1  0
  9 10  1  0
 10  5  1  0
  2 11  1  1
  1 12  1  0
  1 13  1  0
  1 14  1  0
  5 15  1  0
  6 16  1  0
  6 17  1  0
  7 18  1  0
  7 19  1  0
  8 20  1  0
  8 21  1  0
  9 22  1  0
  9 23  1  0
 10 24  1  0
 10 25  1  0
M  END
$$$$
