MPXN_00_achiral_warhead
     RDKit          3D

 13 12  0  0  0  0  0  0  0  0999 V2000
    2.3983    0.2555   -0.3585 C   0  0  0  0  0  0  0  0  0  0  0  0
    1.5709   -0.3816    0.5789 O   0  0  0  0  0  0  0  0  0  0  0  0
    0.0175   -0.3673   -0.0523 P   0  0  0  0  0  0  0  0  0  0  0  0
   -0.2192    0.9917   -0.6943 O   0  0  0  0  0  0  0  0  0  0  0  0
   -1.1722   -0.5212    1.1550 O   0  0  0  0  0  0  0  0  0  0  0  0
   -2.3741   -0.1468    0.5334 C   0  0  0  0  0  0  0  0  0  0  0  0
   -0.1252   -1.0719   -0.6810 R   0  0  0  0  0  0  0  0  0  0  0  0
    1.7979    0.8862   -1.0556 H   0  0  0  0  0  0  0  0  0  0  0  0
    2.9170   -0.4811   -0.9999 H   0  0  0  0  0  0  0  0  0  0  0  0
    3.1319    0.8965    0.1528 H   0  0  0  0  0  0  0  0  0  0  0  0
   -2.1473    0.8135    0.0152 H   0  0  0  0  0  0  0  0  0  0  0  0
   -2.5990   -0.8837   -0.2658 H   0  0  0  0  0  0  0  0  0  0  0  0
   -3.1966    0.0103    1.2399 H   0  0  0  0  0  0  0  0  0  0  0  0
  1  2  1  0
  2  3  1  0
  3  4  2  0
  3  5  1  0
  5  6  1  0
  3  7  1  0
  1  8  1  0
  1  9  1  0
  1 10  1  0
  6 11  1  0
  6 12  1  0
  6 13  1  0
M  END
$$$$
