PXNE_00_achiral_warhead
     RDKit          3D

 19 18  0  0  0  0  0  0  0  0999 V2000
    3.4774   -0.0663   -0.2491 C   0  0  0  0  0  0  0  0  0  0  0  0
    2.0573   -0.2631    0.1214 C   0  0  0  0  0  0  0  0  0  0  0  0
    1.3412   -1.1501   -0.6310 O   0  0  0  0  0  0  0  0  0  0  0  0
   -0.2457   -1.3748   -0.2202 P   0  0  0  0  0  0  0  0  0  0  0  0
   -0.4814   -2.2745    0.9503 O   0  0  0  0  0  0  0  0  0  0  0  0
   -0.9922    0.1024    0.1712 O   0  0  0  0  0  0  0  0  0  0  0  0
   -2.3074    0.1236   -0.2537 C   0  0  0  0  0  0  0  0  0  0  0  0
   -2.8717    1.4810    0.1462 C   0  0  0  0  0  0  0  0  0  0  0  0
   -0.7135   -1.6941   -1.0611 R   0  0  0  0  0  0  0  0  0  0  0  0
    4.1285   -0.5740    0.4914 H   0  0  0  0  0  0  0  0  0  0  0  0
    3.7581    1.0220   -0.1775 H   0  0  0  0  0  0  0  0  0  0  0  0
    3.7207   -0.3425   -1.2944 H   0  0  0  0  0  0  0  0  0  0  0  0
    1.9881   -0.5298    1.1964 H   0  0  0  0  0  0  0  0  0  0  0  0
    1.5302    0.7309    0.0591 H   0  0  0  0  0  0  0  0  0  0  0  0
   -2.9534   -0.6475    0.2092 H   0  0  0  0  0  0  0  0  0  0  0  0
   -2.4164    0.0661   -1.3529 H   0  0  0  0  0  0  0  0  0  0  0  0
   -2.0754    2.2306   -0.0445 H   0  0  0  0  0  0  0  0  0  0  0  0
   -3.1410    1.4527    1.2076 H   0  0  0  0  0  0  0  0  0  0  0  0
   -3.8035    1.7073   -0.4112 H   0  0  0  0  0  0  0  0  0  0  0  0
  1  2  1  0
  2  3  1  0
  3  4  1  0
  4  5  2  0
  4  6  1  0
  6  7  1  0
  7  8  1  0
  4  9  1  0
  1 10  1  0
  1 11  1  0
  1 12  1  0
  2 13  1  0
  2 14  1  0
  7 15  1  0
  7 16  1  0
  8 17  1  0
  8 18  1  0
  8 19  1  0
M  END
$$$$
