VR_01_P8R_warhead
     RDKit          3D

 21 20  0  0  0  0  0  0  0  0999 V2000
    2.1394   -0.8500    0.4233 P   0  0  2  0  0  5  0  0  0  0  0  0
    3.1074    0.6148   -0.0418 C   0  0  0  0  0  0  0  0  0  0  0  0
    2.2630   -1.8410   -0.7338 O   0  0  0  0  0  0  0  0  0  0  0  0
    0.5179   -0.4398    0.6865 O   0  0  0  0  0  0  0  0  0  0  0  0
   -0.0751   -0.2875   -0.5371 C   0  0  0  0  0  0  0  0  0  0  0  0
   -1.5325    0.0813   -0.5155 C   0  0  0  0  0  0  0  0  0  0  0  0
   -2.3566   -0.9706    0.1949 C   0  0  0  0  0  0  0  0  0  0  0  0
   -1.8177    1.4305    0.0659 C   0  0  0  0  0  0  0  0  0  0  0  0
    2.5517   -1.2614    1.1677 R   0  0  0  0  0  0  0  0  0  0  0  0
    3.2842    1.2696    0.8370 H   0  0  0  0  0  0  0  0  0  0  0  0
    2.7117    1.1432   -0.9138 H   0  0  0  0  0  0  0  0  0  0  0  0
    4.1234    0.2398   -0.3406 H   0  0  0  0  0  0  0  0  0  0  0  0
    0.5204    0.4293   -1.1329 H   0  0  0  0  0  0  0  0  0  0  0  0
   -0.0400   -1.2956   -1.0456 H   0  0  0  0  0  0  0  0  0  0  0  0
   -1.8714    0.0443   -1.5818 H   0  0  0  0  0  0  0  0  0  0  0  0
   -2.0371   -1.1040    1.2552 H   0  0  0  0  0  0  0  0  0  0  0  0
   -3.4161   -0.6436    0.1297 H   0  0  0  0  0  0  0  0  0  0  0  0
   -2.2318   -1.9415   -0.3655 H   0  0  0  0  0  0  0  0  0  0  0  0
   -2.0960    1.3847    1.1555 H   0  0  0  0  0  0  0  0  0  0  0  0
   -2.7217    1.8249   -0.4762 H   0  0  0  0  0  0  0  0  0  0  0  0
   -1.0231    2.1727   -0.1248 H   0  0  0  0  0  0  0  0  0  0  0  0
  1  2  1  0
  1  3  2  0
  1  4  1  0
  4  5  1  0
  5  6  1  0
  6  7  1  0
  6  8  1  0
  1  9  1  1
  2 10  1  0
  2 11  1  0
  2 12  1  0
  5 13  1  0
  5 14  1  0
  6 15  1  0
  7 16  1  0
  7 17  1  0
  7 18  1  0
  8 19  1  0
  8 20  1  0
  8 21  1  0
M  END
$$$$
