VR_00_P8S_warhead
     RDKit          3D

 21 20  0  0  0  0  0  0  0  0999 V2000
    2.1594   -0.5699   -0.3213 P   0  0  1  0  0  5  0  0  0  0  0  0
    3.3831    0.5582    0.3875 C   0  0  0  0  0  0  0  0  0  0  0  0
    2.4839   -2.0231   -0.0523 O   0  0  0  0  0  0  0  0  0  0  0  0
    0.6002   -0.2408    0.2455 O   0  0  0  0  0  0  0  0  0  0  0  0
   -0.2632   -0.2966   -0.8139 C   0  0  0  0  0  0  0  0  0  0  0  0
   -1.7062   -0.0248   -0.4809 C   0  0  0  0  0  0  0  0  0  0  0  0
   -2.2473   -1.0169    0.5228 C   0  0  0  0  0  0  0  0  0  0  0  0
   -1.9525    1.3768   -0.0171 C   0  0  0  0  0  0  0  0  0  0  0  0
    2.1877   -0.4208   -1.3595 R   0  0  0  0  0  0  0  0  0  0  0  0
    2.9560    1.2577    1.1348 H   0  0  0  0  0  0  0  0  0  0  0  0
    3.9419    1.1063   -0.4076 H   0  0  0  0  0  0  0  0  0  0  0  0
    4.1661   -0.0796    0.8935 H   0  0  0  0  0  0  0  0  0  0  0  0
    0.0757    0.4256   -1.5840 H   0  0  0  0  0  0  0  0  0  0  0  0
   -0.2167   -1.3252   -1.2436 H   0  0  0  0  0  0  0  0  0  0  0  0
   -2.2791   -0.1839   -1.4241 H   0  0  0  0  0  0  0  0  0  0  0  0
   -2.0599   -0.6684    1.5532 H   0  0  0  0  0  0  0  0  0  0  0  0
   -3.3495   -1.1410    0.3906 H   0  0  0  0  0  0  0  0  0  0  0  0
   -1.7321   -1.9850    0.3585 H   0  0  0  0  0  0  0  0  0  0  0  0
   -2.2218    1.3580    1.0694 H   0  0  0  0  0  0  0  0  0  0  0  0
   -2.8280    1.8242   -0.5374 H   0  0  0  0  0  0  0  0  0  0  0  0
   -1.0978    2.0693   -0.2077 H   0  0  0  0  0  0  0  0  0  0  0  0
  1  2  1  0
  1  3  2  0
  1  4  1  0
  4  5  1  0
  5  6  1  0
  6  7  1  0
  6  8  1  0
  1  9  1  6
  2 10  1  0
  2 11  1  0
  2 12  1  0
  5 13  1  0
  5 14  1  0
  6 15  1  0
  7 16  1  0
  7 17  1  0
  7 18  1  0
  8 19  1  0
  8 20  1  0
  8 21  1  0
M  END
$$$$
