VX_01_P3R_warhead
     RDKit          3D

 15 14  0  0  0  0  0  0  0  0999 V2000
   -2.4240    0.0164   -0.0962 C   0  0  0  0  0  0  0  0  0  0  0  0
   -0.9452    0.0777    0.2173 C   0  0  0  0  0  0  0  0  0  0  0  0
   -0.2793    0.7296   -0.8105 O   0  0  0  0  0  0  0  0  0  0  0  0
    1.3542    0.7777   -0.4266 P   0  0  1  0  0  5  0  0  0  0  0  0
    1.9674   -0.8126    0.1893 C   0  0  0  0  0  0  0  0  0  0  0  0
    2.2220    1.3509   -1.4904 O   0  0  0  0  0  0  0  0  0  0  0  0
    1.4617    1.4009    0.4470 R   0  0  0  0  0  0  0  0  0  0  0  0
   -2.6913    0.7477   -0.8935 H   0  0  0  0  0  0  0  0  0  0  0  0
   -2.7416   -0.9918   -0.4428 H   0  0  0  0  0  0  0  0  0  0  0  0
   -2.9652    0.3282    0.8340 H   0  0  0  0  0  0  0  0  0  0  0  0
   -0.7219    0.6544    1.1410 H   0  0  0  0  0  0  0  0  0  0  0  0
   -0.5536   -0.9472    0.3154 H   0  0  0  0  0  0  0  0  0  0  0  0
    3.0022   -0.6227    0.5363 H   0  0  0  0  0  0  0  0  0  0  0  0
    1.9283   -1.5815   -0.5809 H   0  0  0  0  0  0  0  0  0  0  0  0
    1.3862   -1.1278    1.0605 H   0  0  0  0  0  0  0  0  0  0  0  0
  1  2  1  0
  2  3  1  0
  3  4  1  0
  4  5  1  0
  4  6  2  0
  4  7  1  1
  1  8  1  0
  1  9  1  0
  1 10  1  0
  2 11  1  0
  2 12  1  0
  5 13  1  0
  5 14  1  0
  5 15  1  0
M  END
$$$$
