VX_00_P3S_warhead
     RDKit          3D

 15 14  0  0  0  0  0  0  0  0999 V2000
   -2.4801    0.2227    0.2152 C   0  0  0  0  0  0  0  0  0  0  0  0
   -0.9772   -0.0822    0.1879 C   0  0  0  0  0  0  0  0  0  0  0  0
   -0.3484    0.6033   -0.8308 O   0  0  0  0  0  0  0  0  0  0  0  0
    1.2924    0.3545   -0.9641 P   0  0  2  0  0  5  0  0  0  0  0  0
    2.0852   -0.4088    0.4344 C   0  0  0  0  0  0  0  0  0  0  0  0
    2.0227    1.5650   -1.4864 O   0  0  0  0  0  0  0  0  0  0  0  0
    1.3691   -0.3839   -1.7408 R   0  0  0  0  0  0  0  0  0  0  0  0
   -2.6192    0.9439    1.0631 H   0  0  0  0  0  0  0  0  0  0  0  0
   -3.0806   -0.6872    0.4569 H   0  0  0  0  0  0  0  0  0  0  0  0
   -2.8143    0.6851   -0.7196 H   0  0  0  0  0  0  0  0  0  0  0  0
   -0.5136    0.0061    1.1664 H   0  0  0  0  0  0  0  0  0  0  0  0
   -0.9122   -1.1747   -0.0833 H   0  0  0  0  0  0  0  0  0  0  0  0
    2.9919    0.2116    0.6944 H   0  0  0  0  0  0  0  0  0  0  0  0
    2.4869   -1.4206    0.2554 H   0  0  0  0  0  0  0  0  0  0  0  0
    1.4972   -0.4348    1.3512 H   0  0  0  0  0  0  0  0  0  0  0  0
  1  2  1  0
  2  3  1  0
  3  4  1  0
  4  5  1  0
  4  6  2  0
  4  7  1  6
  1  8  1  0
  1  9  1  0
  1 10  1  0
  2 11  1  0
  2 12  1  0
  5 13  1  0
  5 14  1  0
  5 15  1  0
M  END
$$$$
