@<TRIPOS>MOLECULE
MOL
   42    41     1     0     0
SMALL
bcc


@<TRIPOS>ATOM
      1 C1           5.8380    -2.0940     1.5880 c3         1 MOL      -0.096100
      2 C2           5.1710    -1.2310     0.5380 c3         1 MOL       0.159400
      3 O1           3.9690    -0.7070     1.0780 os         1 MOL      -0.570200
      4 P1           3.1810     0.4090     0.2110 p5         1 MOL       1.382300
      5 C3           3.9990     1.9290     0.6920 c3         1 MOL      -0.445300
      6 O2           3.2800     0.1680    -1.2700 o          1 MOL      -0.782300
      7 S1           1.1980     0.5090     0.8340 ss         1 MOL      -0.668500
      8 C4           0.3540     1.2930    -0.5750 c3         1 MOL       0.191700
      9 C5          -1.1510     1.5100    -0.3310 c3         1 MOL       0.183800
     10 N1          -1.9340     0.2760    -0.1140 n3         1 MOL      -0.759600
     11 C6          -3.0410     0.4750     0.8400 c3         1 MOL       0.198000
     12 C7          -3.7260    -0.8110     1.3080 c3         1 MOL      -0.108100
     13 C8          -4.0960     1.5170     0.4390 c3         1 MOL      -0.108100
     14 C9          -2.1120    -0.5180    -1.3440 c3         1 MOL       0.198000
     15 C10         -3.3780    -0.2530    -2.1590 c3         1 MOL      -0.108100
     16 C11         -1.9400    -2.0180    -1.0760 c3         1 MOL      -0.108100
     17 H1           6.7700    -2.5220     1.2070 hc         1 MOL       0.050367
     18 H2           6.0610    -1.5060     2.4850 hc         1 MOL       0.050367
     19 H3           5.1750    -2.9080     1.8970 hc         1 MOL       0.050367
     20 H4           5.8350    -0.4120     0.2450 h1         1 MOL       0.049200
     21 H5           4.9350    -1.8300    -0.3470 h1         1 MOL       0.049200
     22 H6           3.5240     2.7860     0.2070 hc         1 MOL       0.136367
     23 H7           5.0520     1.9110     0.3990 hc         1 MOL       0.136367
     24 H8           3.9440     2.0700     1.7750 hc         1 MOL       0.136367
     25 H9           0.8290     2.2660    -0.7450 h1         1 MOL       0.061700
     26 H10          0.5330     0.6900    -1.4690 h1         1 MOL       0.061700
     27 H11         -1.2340     2.1740     0.5410 h1         1 MOL       0.056700
     28 H12         -1.5720     2.0720    -1.1740 h1         1 MOL       0.056700
     29 H13         -2.5700     0.8690     1.7520 h1         1 MOL       0.046700
     30 H14         -4.3520    -1.2580     0.5310 hc         1 MOL       0.037700
     31 H15         -4.3790    -0.6030     2.1640 hc         1 MOL       0.037700
     32 H16         -2.9900    -1.5500     1.6430 hc         1 MOL       0.037700
     33 H17         -4.7400     1.7450     1.2970 hc         1 MOL       0.037700
     34 H18         -4.7490     1.1690    -0.3640 hc         1 MOL       0.037700
     35 H19         -3.6430     2.4620     0.1260 hc         1 MOL       0.037700
     36 H20         -1.2860    -0.2790    -2.0250 h1         1 MOL       0.046700
     37 H21         -3.3210    -0.7740    -3.1220 hc         1 MOL       0.037700
     38 H22         -4.2800    -0.6130    -1.6580 hc         1 MOL       0.037700
     39 H23         -3.4920     0.8130    -2.3790 hc         1 MOL       0.037700
     40 H24         -2.8010    -2.4620    -0.5730 hc         1 MOL       0.037700
     41 H25         -1.8110    -2.5560    -2.0220 hc         1 MOL       0.037700
     42 H26         -1.0470    -2.2100    -0.4710 hc         1 MOL       0.037700
@<TRIPOS>BOND
     1     1     2 1   
     2     2     3 1   
     3     4     3 1   
     4     4     5 1   
     5     4     6 2   
     6     4     7 1   
     7     7     8 1   
     8     8     9 1   
     9     9    10 1   
    10    10    11 1   
    11    11    12 1   
    12    11    13 1   
    13    10    14 1   
    14    14    15 1   
    15    14    16 1   
    16     1    17 1   
    17     1    18 1   
    18     1    19 1   
    19     2    20 1   
    20     2    21 1   
    21     5    22 1   
    22     5    23 1   
    23     5    24 1   
    24     8    25 1   
    25     8    26 1   
    26     9    27 1   
    27     9    28 1   
    28    11    29 1   
    29    12    30 1   
    30    12    31 1   
    31    12    32 1   
    32    13    33 1   
    33    13    34 1   
    34    13    35 1   
    35    14    36 1   
    36    15    37 1   
    37    15    38 1   
    38    15    39 1   
    39    16    40 1   
    40    16    41 1   
    41    16    42 1   
@<TRIPOS>SUBSTRUCTURE
     1 MOL         1 TEMP              0 ****  ****    0 ROOT
