
     RDKit          3D

 39 38  0  0  0  0  0  0  0  0999 V2000
    1.8739   -0.8999    2.4301 C   0  0  0  0  0  0  0  0  0  0  0  0
    2.1850   -0.9705    0.9419 C   0  0  0  0  0  0  0  0  0  0  0  0
    0.9451   -1.1012    0.1643 N   0  0  0  0  0  0  0  0  0  0  0  0
    0.9271   -2.2157   -0.7919 C   0  0  0  0  0  0  0  0  0  0  0  0
    1.7761   -1.9025   -2.0159 C   0  0  0  0  0  0  0  0  0  0  0  0
    0.1020   -0.0036    0.0126 C   0  0  0  0  0  0  0  0  0  0  0  0
    0.5615    1.1729    0.2724 N   0  0  0  0  0  0  0  0  0  0  0  0
   -0.1488    2.5946    0.2937 P   0  0  2  0  0  5  0  0  0  0  0  0
    1.0740    3.7051    0.9968 C   0  0  0  0  0  0  0  0  0  0  0  0
   -1.4628    2.7413    1.0112 O   0  0  0  0  0  0  0  0  0  0  0  0
   -0.3585    2.9699   -1.2224 F   0  0  0  0  0  0  0  0  0  0  0  0
   -1.1764   -0.3631   -0.3681 N   0  0  0  0  0  0  0  0  0  0  0  0
   -1.9813   -1.1544    0.5795 C   0  0  0  0  0  0  0  0  0  0  0  0
   -2.5902   -0.2845    1.6669 C   0  0  0  0  0  0  0  0  0  0  0  0
   -1.9551    0.3824   -1.3606 C   0  0  0  0  0  0  0  0  0  0  0  0
   -1.2459    0.4127   -2.7056 C   0  0  0  0  0  0  0  0  0  0  0  0
    2.8015   -0.8485    3.0087 H   0  0  0  0  0  0  0  0  0  0  0  0
    1.2732   -0.0191    2.6776 H   0  0  0  0  0  0  0  0  0  0  0  0
    1.3169   -1.7854    2.7542 H   0  0  0  0  0  0  0  0  0  0  0  0
    2.8397   -1.8350    0.7770 H   0  0  0  0  0  0  0  0  0  0  0  0
    2.7553   -0.0901    0.6235 H   0  0  0  0  0  0  0  0  0  0  0  0
   -0.0906   -2.4592   -1.1141 H   0  0  0  0  0  0  0  0  0  0  0  0
    1.3059   -3.1231   -0.3060 H   0  0  0  0  0  0  0  0  0  0  0  0
    2.8255   -1.7484   -1.7445 H   0  0  0  0  0  0  0  0  0  0  0  0
    1.7310   -2.7314   -2.7292 H   0  0  0  0  0  0  0  0  0  0  0  0
    1.4281   -0.9973   -2.5219 H   0  0  0  0  0  0  0  0  0  0  0  0
    2.0063    3.6533    0.4278 H   0  0  0  0  0  0  0  0  0  0  0  0
    1.2816    3.4359    2.0360 H   0  0  0  0  0  0  0  0  0  0  0  0
    0.7071    4.7345    0.9673 H   0  0  0  0  0  0  0  0  0  0  0  0
   -1.3704   -1.9339    1.0496 H   0  0  0  0  0  0  0  0  0  0  0  0
   -2.7766   -1.6839    0.0416 H   0  0  0  0  0  0  0  0  0  0  0  0
   -3.1884   -0.8969    2.3490 H   0  0  0  0  0  0  0  0  0  0  0  0
   -1.8135    0.2139    2.2554 H   0  0  0  0  0  0  0  0  0  0  0  0
   -3.2436    0.4844    1.2431 H   0  0  0  0  0  0  0  0  0  0  0  0
   -2.1827    1.3930   -1.0190 H   0  0  0  0  0  0  0  0  0  0  0  0
   -2.9258   -0.1043   -1.5176 H   0  0  0  0  0  0  0  0  0  0  0  0
   -1.0784   -0.6026   -3.0799 H   0  0  0  0  0  0  0  0  0  0  0  0
   -0.2744    0.9114   -2.6425 H   0  0  0  0  0  0  0  0  0  0  0  0
   -1.8534    0.9493   -3.4411 H   0  0  0  0  0  0  0  0  0  0  0  0
  1  2  1  0
  2  3  1  0
  3  4  1  0
  4  5  1  0
  3  6  1  0
  6  7  2  3
  7  8  1  0
  8  9  1  0
  8 10  2  0
  8 11  1  6
  6 12  1  0
 12 13  1  0
 13 14  1  0
 12 15  1  0
 15 16  1  0
  1 17  1  0
  1 18  1  0
  1 19  1  0
  2 20  1  0
  2 21  1  0
  4 22  1  0
  4 23  1  0
  5 24  1  0
  5 25  1  0
  5 26  1  0
  9 27  1  0
  9 28  1  0
  9 29  1  0
 13 30  1  0
 13 31  1  0
 14 32  1  0
 14 33  1  0
 14 34  1  0
 15 35  1  0
 15 36  1  0
 16 37  1  0
 16 38  1  0
 16 39  1  0
M  END
$$$$
